/*---------------------------------------------------------------------------*\
  =========                 |
  \\      /  F ield         | OpenFOAM: The Open Source CFD Toolbox
   \\    /   O peration     | Website:  https://openfoam.org
    \\  /    A nd           | Version:  7
     \\/     M anipulation  |
\*---------------------------------------------------------------------------*/
Build  : 7-1ff648926f77
Exec   : impesFoam
Date   : Feb 10 2020
Time   : 15:34:17
Host   : "cyp-Precision-5520"
PID    : 17048
I/O    : uncollated
Case   : /home/cyp/OpenFOAM/cyp-7/run/tuto-porousMedia4Foam/impesFoam-tutorials/injectionExtraction/injection
nProcs : 1
sigFpe : Enabling floating point exception trapping (FOAM_SIGFPE).
fileModificationChecking : Monitoring run-time modified files using timeStampMaster (fileModificationSkew 10)
allowSystemOperations : Allowing user-supplied system call operations

// * * * * * * * * * * * * * * * * * * * * * * * * * * * * * * * * * * * * * //
Create time

Create mesh for time = 0


Reading g
Reading pressure field p

Reading saturation field Sb

Reading transportProperties
Selecting absolute permeability model heterogeneousScalarConstant
Selecting reduced saturation model => minMax

Parameters for reduced saturation model
{
    Smax 0.999
    Smin 0.001
} 

Selecting relativePermeability model => BrooksAndCorey

Brooks and Corey parameters for relative permeability model
{
    n read file
    kramax 1
    krbmax 1
} 

Selecting capillarity model => none


Reading porosity field eps

Reading mobilities

Reading field U
Reading/calculating face flux field phi


Reading Event file 'injection.dat' ...OK!
{
  number of dates       = 2
  number of coordinates = 2
  number datas          = 4
}

Starting time loop

Coats CFL Number mean: 0 max: 0
deltaT = 1.2e-05
Time = 1.2e-05

diagonal:  Solving for Sb, Initial residual = 0, Final residual = 0, No Iterations 0
Saturation b  Min(Sb) = 0.002 Max(Sb) = 0.00200004
DICPCG:  Solving for p, Initial residual = 1, Final residual = 7.9715e-13, No Iterations 112
ExecutionTime = 0.05 s  ClockTime = 0 s

Coats CFL Number mean: 2.84359e-13 max: 5.70966e-13
deltaT = 1.44e-05
Time = 2.64e-05

diagonal:  Solving for Sb, Initial residual = 0, Final residual = 0, No Iterations 0
Saturation b  Min(Sb) = 0.002 Max(Sb) = 0.0020001
DICPCG:  Solving for p, Initial residual = 9.0274e-10, Final residual = 9.18274e-13, No Iterations 50
ExecutionTime = 0.05 s  ClockTime = 0 s

Coats CFL Number mean: 3.4123e-13 max: 6.85159e-13
deltaT = 1.728e-05
Time = 4.368e-05

diagonal:  Solving for Sb, Initial residual = 0, Final residual = 0, No Iterations 0
Saturation b  Min(Sb) = 0.002 Max(Sb) = 0.00200016
DICPCG:  Solving for p, Initial residual = 7.49536e-10, Final residual = 8.85318e-13, No Iterations 42
ExecutionTime = 0.05 s  ClockTime = 0 s

Coats CFL Number mean: 4.09476e-13 max: 8.2219e-13
deltaT = 2.0736e-05
Time = 6.4416e-05

diagonal:  Solving for Sb, Initial residual = 0, Final residual = 0, No Iterations 0
Saturation b  Min(Sb) = 0.002 Max(Sb) = 0.00200024
DICPCG:  Solving for p, Initial residual = 8.99224e-10, Final residual = 9.17426e-13, No Iterations 43
ExecutionTime = 0.06 s  ClockTime = 0 s

Coats CFL Number mean: 4.91372e-13 max: 9.86629e-13
deltaT = 2.48832e-05
Time = 8.92992e-05

diagonal:  Solving for Sb, Initial residual = 0, Final residual = 0, No Iterations 0
Saturation b  Min(Sb) = 0.002 Max(Sb) = 0.00200033
DICPCG:  Solving for p, Initial residual = 1.07893e-09, Final residual = 9.19626e-13, No Iterations 44
ExecutionTime = 0.06 s  ClockTime = 0 s

Coats CFL Number mean: 5.89646e-13 max: 1.18395e-12
deltaT = 2.98598e-05
Time = 0.000119159

diagonal:  Solving for Sb, Initial residual = 0, Final residual = 0, No Iterations 0
Saturation b  Min(Sb) = 0.002 Max(Sb) = 0.00200044
DICPCG:  Solving for p, Initial residual = 1.29453e-09, Final residual = 9.10704e-13, No Iterations 45
ExecutionTime = 0.07 s  ClockTime = 0 s

Coats CFL Number mean: 7.07575e-13 max: 1.42075e-12
deltaT = 3.58318e-05
Time = 0.000154991

diagonal:  Solving for Sb, Initial residual = 0, Final residual = 0, No Iterations 0
Saturation b  Min(Sb) = 0.002 Max(Sb) = 0.00200057
DICPCG:  Solving for p, Initial residual = 1.55324e-09, Final residual = 9.62974e-13, No Iterations 48
ExecutionTime = 0.07 s  ClockTime = 0 s

Coats CFL Number mean: 8.49091e-13 max: 1.70489e-12
deltaT = 4.29982e-05
Time = 0.000197989

diagonal:  Solving for Sb, Initial residual = 0, Final residual = 0, No Iterations 0
Saturation b  Min(Sb) = 0.002 Max(Sb) = 0.00200073
DICPCG:  Solving for p, Initial residual = 1.86376e-09, Final residual = 8.85493e-13, No Iterations 52
ExecutionTime = 0.08 s  ClockTime = 0 s

Coats CFL Number mean: 1.01891e-12 max: 2.04633e-12
deltaT = 5.15978e-05
Time = 0.000249587

diagonal:  Solving for Sb, Initial residual = 0, Final residual = 0, No Iterations 0
Saturation b  Min(Sb) = 0.002 Max(Sb) = 0.00200092
DICPCG:  Solving for p, Initial residual = 2.23625e-09, Final residual = 8.92318e-13, No Iterations 53
ExecutionTime = 0.09 s  ClockTime = 0 s

Coats CFL Number mean: 1.22269e-12 max: 2.45654e-12
deltaT = 6.19174e-05
Time = 0.000311504

diagonal:  Solving for Sb, Initial residual = 0, Final residual = 0, No Iterations 0
Saturation b  Min(Sb) = 0.002 Max(Sb) = 0.00200115
DICPCG:  Solving for p, Initial residual = 2.68333e-09, Final residual = 7.65273e-13, No Iterations 54
ExecutionTime = 0.1 s  ClockTime = 0 s

Coats CFL Number mean: 1.46723e-12 max: 2.94919e-12
deltaT = 7.43008e-05
Time = 0.000385805

diagonal:  Solving for Sb, Initial residual = 0, Final residual = 0, No Iterations 0
Saturation b  Min(Sb) = 0.002 Max(Sb) = 0.00200143
DICPCG:  Solving for p, Initial residual = 3.21969e-09, Final residual = 9.19642e-13, No Iterations 54
ExecutionTime = 0.1 s  ClockTime = 0 s

Coats CFL Number mean: 1.76068e-12 max: 3.54098e-12
deltaT = 8.9161e-05
Time = 0.000474966

diagonal:  Solving for Sb, Initial residual = 0, Final residual = 0, No Iterations 0
Saturation b  Min(Sb) = 0.002 Max(Sb) = 0.00200176
DICPCG:  Solving for p, Initial residual = 3.86363e-09, Final residual = 7.72417e-13, No Iterations 55
ExecutionTime = 0.11 s  ClockTime = 0 s

Coats CFL Number mean: 2.11281e-12 max: 4.25197e-12
deltaT = 0.000106993
Time = 0.000581959

diagonal:  Solving for Sb, Initial residual = 0, Final residual = 0, No Iterations 0
Saturation b  Min(Sb) = 0.002 Max(Sb) = 0.00200215
DICPCG:  Solving for p, Initial residual = 4.63603e-09, Final residual = 9.27178e-13, No Iterations 55
ExecutionTime = 0.11 s  ClockTime = 0 s

Coats CFL Number mean: 2.53538e-12 max: 5.10639e-12
deltaT = 0.000128392
Time = 0.000710351

diagonal:  Solving for Sb, Initial residual = 0, Final residual = 0, No Iterations 0
Saturation b  Min(Sb) = 0.002 Max(Sb) = 0.00200263
DICPCG:  Solving for p, Initial residual = 5.56323e-09, Final residual = 8.7535e-13, No Iterations 56
ExecutionTime = 0.12 s  ClockTime = 0 s

Coats CFL Number mean: 3.04245e-12 max: 6.13348e-12
deltaT = 0.00015407
Time = 0.000864421

diagonal:  Solving for Sb, Initial residual = 0, Final residual = 0, No Iterations 0
Saturation b  Min(Sb) = 0.002 Max(Sb) = 0.0020032
DICPCG:  Solving for p, Initial residual = 6.67565e-09, Final residual = 9.36304e-13, No Iterations 57
ExecutionTime = 0.13 s  ClockTime = 0 s

Coats CFL Number mean: 3.65095e-12 max: 7.36854e-12
deltaT = 0.000184884
Time = 0.00104931

diagonal:  Solving for Sb, Initial residual = 0, Final residual = 0, No Iterations 0
Saturation b  Min(Sb) = 0.002 Max(Sb) = 0.00200388
DICPCG:  Solving for p, Initial residual = 8.01066e-09, Final residual = 8.21791e-13, No Iterations 58
ExecutionTime = 0.13 s  ClockTime = 0 s

Coats CFL Number mean: 4.38114e-12 max: 8.8543e-12
deltaT = 0.000221861
Time = 0.00127117

diagonal:  Solving for Sb, Initial residual = 0, Final residual = 0, No Iterations 0
Saturation b  Min(Sb) = 0.002 Max(Sb) = 0.0020047
DICPCG:  Solving for p, Initial residual = 9.6125e-09, Final residual = 9.87099e-13, No Iterations 58
ExecutionTime = 0.14 s  ClockTime = 0 s

Coats CFL Number mean: 5.25737e-12 max: 1.06425e-11
deltaT = 0.000266233
Time = 0.0015374

diagonal:  Solving for Sb, Initial residual = 0, Final residual = 0, No Iterations 0
Saturation b  Min(Sb) = 0.002 Max(Sb) = 0.00200568
DICPCG:  Solving for p, Initial residual = 1.1535e-08, Final residual = 9.64831e-13, No Iterations 59
ExecutionTime = 0.15 s  ClockTime = 0 s

Coats CFL Number mean: 6.30885e-12 max: 1.27961e-11
deltaT = 0.00031948
Time = 0.00185688

diagonal:  Solving for Sb, Initial residual = 0, Final residual = 0, No Iterations 0
Saturation b  Min(Sb) = 0.002 Max(Sb) = 0.00200686
DICPCG:  Solving for p, Initial residual = 1.38418e-08, Final residual = 9.17029e-13, No Iterations 60
ExecutionTime = 0.16 s  ClockTime = 0 s

Coats CFL Number mean: 7.57064e-12 max: 1.53914e-11
deltaT = 0.000383376
Time = 0.00224026

diagonal:  Solving for Sb, Initial residual = 0, Final residual = 0, No Iterations 0
Saturation b  Min(Sb) = 0.002 Max(Sb) = 0.00200828
DICPCG:  Solving for p, Initial residual = 1.66099e-08, Final residual = 8.47014e-13, No Iterations 61
ExecutionTime = 0.16 s  ClockTime = 0 s

Coats CFL Number mean: 9.08478e-12 max: 1.85217e-11
deltaT = 0.000460051
Time = 0.00270031

diagonal:  Solving for Sb, Initial residual = 0, Final residual = 0, No Iterations 0
Saturation b  Min(Sb) = 0.002 Max(Sb) = 0.00200998
DICPCG:  Solving for p, Initial residual = 1.99317e-08, Final residual = 8.3144e-13, No Iterations 62
ExecutionTime = 0.17 s  ClockTime = 0 s

Coats CFL Number mean: 1.09018e-11 max: 2.23011e-11
deltaT = 0.000552061
Time = 0.00325237

diagonal:  Solving for Sb, Initial residual = 0, Final residual = 0, No Iterations 0
Saturation b  Min(Sb) = 0.002 Max(Sb) = 0.00201202
DICPCG:  Solving for p, Initial residual = 2.39179e-08, Final residual = 9.96807e-13, No Iterations 62
ExecutionTime = 0.18 s  ClockTime = 0 s

Coats CFL Number mean: 1.30821e-11 max: 2.68695e-11
deltaT = 0.000662473
Time = 0.00391484

diagonal:  Solving for Sb, Initial residual = 0, Final residual = 0, No Iterations 0
Saturation b  Min(Sb) = 0.002 Max(Sb) = 0.00201447
DICPCG:  Solving for p, Initial residual = 2.87015e-08, Final residual = 6.89361e-13, No Iterations 65
ExecutionTime = 0.19 s  ClockTime = 0 s

Coats CFL Number mean: 1.56986e-11 max: 3.23997e-11
deltaT = 0.000794968
Time = 0.00470981

diagonal:  Solving for Sb, Initial residual = 0, Final residual = 0, No Iterations 0
Saturation b  Min(Sb) = 0.002 Max(Sb) = 0.00201741
DICPCG:  Solving for p, Initial residual = 3.44413e-08, Final residual = 8.25826e-13, No Iterations 65
ExecutionTime = 0.2 s  ClockTime = 0 s

Coats CFL Number mean: 1.88384e-11 max: 3.91053e-11
deltaT = 0.000953962
Time = 0.00566377

diagonal:  Solving for Sb, Initial residual = 0, Final residual = 0, No Iterations 0
Saturation b  Min(Sb) = 0.002 Max(Sb) = 0.00202094
DICPCG:  Solving for p, Initial residual = 4.13297e-08, Final residual = 9.91931e-13, No Iterations 65
ExecutionTime = 0.2 s  ClockTime = 0 s

Coats CFL Number mean: 2.26062e-11 max: 4.72522e-11
deltaT = 0.00114475
Time = 0.00680853

diagonal:  Solving for Sb, Initial residual = 0, Final residual = 0, No Iterations 0
Saturation b  Min(Sb) = 0.002 Max(Sb) = 0.00202517
DICPCG:  Solving for p, Initial residual = 4.95957e-08, Final residual = 7.63367e-13, No Iterations 66
ExecutionTime = 0.21 s  ClockTime = 0 s

Coats CFL Number mean: 2.71276e-11 max: 5.71738e-11
deltaT = 0.0013737
Time = 0.00818223

diagonal:  Solving for Sb, Initial residual = 0, Final residual = 0, No Iterations 0
Saturation b  Min(Sb) = 0.002 Max(Sb) = 0.00203025
DICPCG:  Solving for p, Initial residual = 5.95146e-08, Final residual = 9.15734e-13, No Iterations 66
ExecutionTime = 0.21 s  ClockTime = 0 s

Coats CFL Number mean: 3.25533e-11 max: 6.929e-11
deltaT = 0.00164845
Time = 0.00983068

diagonal:  Solving for Sb, Initial residual = 0, Final residual = 0, No Iterations 0
Saturation b  Min(Sb) = 0.002 Max(Sb) = 0.00203634
DICPCG:  Solving for p, Initial residual = 7.14178e-08, Final residual = 8.15237e-13, No Iterations 67
ExecutionTime = 0.22 s  ClockTime = 0 s

Coats CFL Number mean: 3.90643e-11 max: 8.41346e-11
deltaT = 0.00197813
Time = 0.0118088

diagonal:  Solving for Sb, Initial residual = 0, Final residual = 0, No Iterations 0
Saturation b  Min(Sb) = 0.002 Max(Sb) = 0.00204366
DICPCG:  Solving for p, Initial residual = 8.57014e-08, Final residual = 9.76064e-13, No Iterations 67
ExecutionTime = 0.23 s  ClockTime = 0 s

Coats CFL Number mean: 4.68776e-11 max: 1.02391e-10
deltaT = 0.00237376
Time = 0.0141826

diagonal:  Solving for Sb, Initial residual = 0, Final residual = 0, No Iterations 0
Saturation b  Min(Sb) = 0.002 Max(Sb) = 0.00205243
DICPCG:  Solving for p, Initial residual = 1.02842e-07, Final residual = 8.49375e-13, No Iterations 68
ExecutionTime = 0.23 s  ClockTime = 0 s

Coats CFL Number mean: 5.62537e-11 max: 1.24945e-10
deltaT = 0.00284851
Time = 0.0170311

diagonal:  Solving for Sb, Initial residual = 0, Final residual = 0, No Iterations 0
Saturation b  Min(Sb) = 0.002 Max(Sb) = 0.00206296
DICPCG:  Solving for p, Initial residual = 1.23411e-07, Final residual = 7.27334e-13, No Iterations 69
ExecutionTime = 0.24 s  ClockTime = 0 s

Coats CFL Number mean: 6.75054e-11 max: 1.52949e-10
deltaT = 0.00341821
Time = 0.0204493

diagonal:  Solving for Sb, Initial residual = 0, Final residual = 0, No Iterations 0
Saturation b  Min(Sb) = 0.002 Max(Sb) = 0.0020756
DICPCG:  Solving for p, Initial residual = 1.48094e-07, Final residual = 8.73648e-13, No Iterations 69
ExecutionTime = 0.25 s  ClockTime = 0 s

Coats CFL Number mean: 8.10079e-11 max: 1.87929e-10
deltaT = 0.00410186
Time = 0.0245512

diagonal:  Solving for Sb, Initial residual = 0, Final residual = 0, No Iterations 0
Saturation b  Min(Sb) = 0.002 Max(Sb) = 0.00209077
DICPCG:  Solving for p, Initial residual = 1.77715e-07, Final residual = 7.80622e-13, No Iterations 70
ExecutionTime = 0.25 s  ClockTime = 1 s

Coats CFL Number mean: 9.72114e-11 max: 2.31919e-10
deltaT = 0.00492223
Time = 0.0294734

diagonal:  Solving for Sb, Initial residual = 0, Final residual = 0, No Iterations 0
Saturation b  Min(Sb) = 0.002 Max(Sb) = 0.00210896
DICPCG:  Solving for p, Initial residual = 2.1326e-07, Final residual = 9.3672e-13, No Iterations 70
ExecutionTime = 0.26 s  ClockTime = 1 s

Coats CFL Number mean: 1.16657e-10 max: 2.87667e-10
deltaT = 0.00590667
Time = 0.0353801

diagonal:  Solving for Sb, Initial residual = 0, Final residual = 0, No Iterations 0
Saturation b  Min(Sb) = 0.002 Max(Sb) = 0.0021308
DICPCG:  Solving for p, Initial residual = 2.55915e-07, Final residual = 8.64805e-13, No Iterations 71
ExecutionTime = 0.27 s  ClockTime = 1 s

Coats CFL Number mean: 1.39992e-10 max: 3.58929e-10
deltaT = 0.00708801
Time = 0.0424681

diagonal:  Solving for Sb, Initial residual = 0, Final residual = 0, No Iterations 0
Saturation b  Min(Sb) = 0.002 Max(Sb) = 0.00215701
DICPCG:  Solving for p, Initial residual = 3.07102e-07, Final residual = 7.17985e-13, No Iterations 72
ExecutionTime = 0.27 s  ClockTime = 1 s

Coats CFL Number mean: 1.67997e-10 max: 4.50909e-10
deltaT = 0.0085056
Time = 0.0509737

diagonal:  Solving for Sb, Initial residual = 0, Final residual = 0, No Iterations 0
Saturation b  Min(Sb) = 0.002 Max(Sb) = 0.00218845
DICPCG:  Solving for p, Initial residual = 3.68529e-07, Final residual = 8.62067e-13, No Iterations 72
ExecutionTime = 0.28 s  ClockTime = 1 s

Coats CFL Number mean: 2.01606e-10 max: 5.70902e-10
deltaT = 0.0102067
Time = 0.0611804

diagonal:  Solving for Sb, Initial residual = 0, Final residual = 0, No Iterations 0
Saturation b  Min(Sb) = 0.002 Max(Sb) = 0.00222619
DICPCG:  Solving for p, Initial residual = 4.42244e-07, Final residual = 8.07566e-13, No Iterations 73
ExecutionTime = 0.29 s  ClockTime = 1 s

Coats CFL Number mean: 2.4194e-10 max: 7.29277e-10
deltaT = 0.012248
Time = 0.0734284

diagonal:  Solving for Sb, Initial residual = 0, Final residual = 0, No Iterations 0
Saturation b  Min(Sb) = 0.002 Max(Sb) = 0.00227147
DICPCG:  Solving for p, Initial residual = 5.30706e-07, Final residual = 9.70732e-13, No Iterations 73
ExecutionTime = 0.29 s  ClockTime = 1 s

Coats CFL Number mean: 2.90348e-10 max: 9.4096e-10
deltaT = 0.0146976
Time = 0.088126

diagonal:  Solving for Sb, Initial residual = 0, Final residual = 0, No Iterations 0
Saturation b  Min(Sb) = 0.002 Max(Sb) = 0.00232581
DICPCG:  Solving for p, Initial residual = 6.36868e-07, Final residual = 9.02391e-13, No Iterations 74
ExecutionTime = 0.3 s  ClockTime = 1 s

Coats CFL Number mean: 3.48449e-10 max: 1.22773e-09
deltaT = 0.0176371
Time = 0.105763

diagonal:  Solving for Sb, Initial residual = 0, Final residual = 0, No Iterations 0
Saturation b  Min(Sb) = 0.002 Max(Sb) = 0.00239101
DICPCG:  Solving for p, Initial residual = 7.64269e-07, Final residual = 8.65899e-13, No Iterations 75
ExecutionTime = 0.31 s  ClockTime = 1 s

Coats CFL Number mean: 4.18184e-10 max: 1.62175e-09
deltaT = 0.0211645
Time = 0.126928

diagonal:  Solving for Sb, Initial residual = 0, Final residual = 0, No Iterations 0
Saturation b  Min(Sb) = 0.002 Max(Sb) = 0.00246926
DICPCG:  Solving for p, Initial residual = 9.17163e-07, Final residual = 7.3753e-13, No Iterations 76
ExecutionTime = 0.31 s  ClockTime = 1 s

Coats CFL Number mean: 5.0189e-10 max: 2.1712e-09
deltaT = 0.0253973
Time = 0.152325

diagonal:  Solving for Sb, Initial residual = 0, Final residual = 0, No Iterations 0
Saturation b  Min(Sb) = 0.002 Max(Sb) = 0.00256316
DICPCG:  Solving for p, Initial residual = 1.10066e-06, Final residual = 8.8504e-13, No Iterations 76
ExecutionTime = 0.32 s  ClockTime = 1 s

Coats CFL Number mean: 6.02375e-10 max: 2.94909e-09
deltaT = 0.0304767
Time = 0.182802

diagonal:  Solving for Sb, Initial residual = 0, Final residual = 0, No Iterations 0
Saturation b  Min(Sb) = 0.002 Max(Sb) = 0.00267583
DICPCG:  Solving for p, Initial residual = 1.32087e-06, Final residual = 7.70614e-13, No Iterations 77
ExecutionTime = 0.33 s  ClockTime = 1 s

Coats CFL Number mean: 7.23012e-10 max: 4.06746e-09
deltaT = 0.0365719
Time = 0.219374

diagonal:  Solving for Sb, Initial residual = 0, Final residual = 0, No Iterations 0
Saturation b  Min(Sb) = 0.002 Max(Sb) = 0.00281104
DICPCG:  Solving for p, Initial residual = 1.58517e-06, Final residual = 9.24613e-13, No Iterations 77
ExecutionTime = 0.34 s  ClockTime = 1 s

Coats CFL Number mean: 8.67869e-10 max: 5.70034e-09
deltaT = 0.0438862
Time = 0.26326

diagonal:  Solving for Sb, Initial residual = 0, Final residual = 0, No Iterations 0
Saturation b  Min(Sb) = 0.002 Max(Sb) = 0.00297329
DICPCG:  Solving for p, Initial residual = 1.90238e-06, Final residual = 8.3616e-13, No Iterations 78
ExecutionTime = 0.34 s  ClockTime = 1 s

Coats CFL Number mean: 1.04184e-09 max: 8.12098e-09
deltaT = 0.0526632
Time = 0.315923

diagonal:  Solving for Sb, Initial residual = 0, Final residual = 0, No Iterations 0
Saturation b  Min(Sb) = 0.002 Max(Sb) = 0.00316799
DICPCG:  Solving for p, Initial residual = 2.28311e-06, Final residual = 6.32793e-13, No Iterations 79
ExecutionTime = 0.35 s  ClockTime = 1 s

Coats CFL Number mean: 1.25084e-09 max: 1.17631e-08
deltaT = 0.0631951
Time = 0.379118

diagonal:  Solving for Sb, Initial residual = 0, Final residual = 0, No Iterations 0
Saturation b  Min(Sb) = 0.002 Max(Sb) = 0.00340163
DICPCG:  Solving for p, Initial residual = 2.74008e-06, Final residual = 7.59592e-13, No Iterations 79
ExecutionTime = 0.36 s  ClockTime = 1 s

Coats CFL Number mean: 1.502e-09 max: 1.7322e-08
deltaT = 0.0758334
Time = 0.454951

diagonal:  Solving for Sb, Initial residual = 0, Final residual = 0, No Iterations 0
Saturation b  Min(Sb) = 0.002 Max(Sb) = 0.00368199
DICPCG:  Solving for p, Initial residual = 3.28861e-06, Final residual = 9.11986e-13, No Iterations 79
ExecutionTime = 0.36 s  ClockTime = 1 s

Coats CFL Number mean: 1.80399e-09 max: 2.59226e-08
deltaT = 0.0910001
Time = 0.545952

diagonal:  Solving for Sb, Initial residual = 0, Final residual = 0, No Iterations 0
Saturation b  Min(Sb) = 0.002 Max(Sb) = 0.00401842
DICPCG:  Solving for p, Initial residual = 3.94713e-06, Final residual = 7.27397e-13, No Iterations 80
ExecutionTime = 0.36 s  ClockTime = 1 s

Coats CFL Number mean: 2.1674e-09 max: 3.94012e-08
deltaT = 0.109199
Time = 0.65515

diagonal:  Solving for Sb, Initial residual = 0, Final residual = 0, No Iterations 0
Saturation b  Min(Sb) = 0.002 Max(Sb) = 0.00442214
DICPCG:  Solving for p, Initial residual = 4.73764e-06, Final residual = 8.73606e-13, No Iterations 80
ExecutionTime = 0.37 s  ClockTime = 1 s

Coats CFL Number mean: 2.60509e-09 max: 6.0775e-08
deltaT = 0.131038
Time = 0.786188

diagonal:  Solving for Sb, Initial residual = 0, Final residual = 0, No Iterations 0
Saturation b  Min(Sb) = 0.002 Max(Sb) = 0.0049066
DICPCG:  Solving for p, Initial residual = 5.68675e-06, Final residual = 8.14872e-13, No Iterations 81
ExecutionTime = 0.38 s  ClockTime = 1 s

Coats CFL Number mean: 3.13304e-09 max: 9.50404e-08
deltaT = 0.157243
Time = 0.943431

diagonal:  Solving for Sb, Initial residual = 0, Final residual = 0, No Iterations 0
Saturation b  Min(Sb) = 0.002 Max(Sb) = 0.00548794
DICPCG:  Solving for p, Initial residual = 6.82634e-06, Final residual = 9.79224e-13, No Iterations 81
ExecutionTime = 0.39 s  ClockTime = 1 s

Coats CFL Number mean: 3.77109e-09 max: 1.50516e-07
deltaT = 0.188686
Time = 1.13212

diagonal:  Solving for Sb, Initial residual = 0, Final residual = 0, No Iterations 0
Saturation b  Min(Sb) = 0.002 Max(Sb) = 0.00618554
DICPCG:  Solving for p, Initial residual = 8.19479e-06, Final residual = 9.83104e-13, No Iterations 82
ExecutionTime = 0.4 s  ClockTime = 1 s

Coats CFL Number mean: 4.54428e-09 max: 2.41131e-07
deltaT = 0.226419
Time = 1.35854

diagonal:  Solving for Sb, Initial residual = 0, Final residual = 0, No Iterations 0
Saturation b  Min(Sb) = 0.002 Max(Sb) = 0.00702263
DICPCG:  Solving for p, Initial residual = 9.8384e-06, Final residual = 7.99879e-13, No Iterations 83
ExecutionTime = 0.4 s  ClockTime = 1 s

Coats CFL Number mean: 5.48492e-09 max: 3.90316e-07
deltaT = 0.271695
Time = 1.63023

diagonal:  Solving for Sb, Initial residual = 0, Final residual = 0, No Iterations 0
Saturation b  Min(Sb) = 0.002 Max(Sb) = 0.00802712
DICPCG:  Solving for p, Initial residual = 1.18128e-05, Final residual = 9.61943e-13, No Iterations 83
ExecutionTime = 0.41 s  ClockTime = 1 s

Coats CFL Number mean: 6.63532e-09 max: 6.37641e-07
deltaT = 0.32603
Time = 1.95626

diagonal:  Solving for Sb, Initial residual = 0, Final residual = 0, No Iterations 0
Saturation b  Min(Sb) = 0.002 Max(Sb) = 0.0092325
DICPCG:  Solving for p, Initial residual = 1.41852e-05, Final residual = 7.76336e-13, No Iterations 84
ExecutionTime = 0.42 s  ClockTime = 1 s

Coats CFL Number mean: 8.05274e-09 max: 1.0502e-06
deltaT = 0.391236
Time = 2.3475

diagonal:  Solving for Sb, Initial residual = 0, Final residual = 0, No Iterations 0
Saturation b  Min(Sb) = 0.002 Max(Sb) = 0.010679
DICPCG:  Solving for p, Initial residual = 1.70367e-05, Final residual = 9.34791e-13, No Iterations 84
ExecutionTime = 0.42 s  ClockTime = 1 s

Coats CFL Number mean: 9.81656e-09 max: 1.74204e-06
deltaT = 0.469484
Time = 2.81698

diagonal:  Solving for Sb, Initial residual = 0, Final residual = 0, No Iterations 0
Saturation b  Min(Sb) = 0.002 Max(Sb) = 0.0124147
DICPCG:  Solving for p, Initial residual = 2.04648e-05, Final residual = 7.3087e-13, No Iterations 85
ExecutionTime = 0.43 s  ClockTime = 1 s

Coats CFL Number mean: 1.20406e-08 max: 2.90756e-06
deltaT = 0.56338
Time = 3.38036

diagonal:  Solving for Sb, Initial residual = 0, Final residual = 0, No Iterations 0
Saturation b  Min(Sb) = 0.002 Max(Sb) = 0.0144977
DICPCG:  Solving for p, Initial residual = 2.45876e-05, Final residual = 8.81339e-13, No Iterations 85
ExecutionTime = 0.44 s  ClockTime = 1 s

Coats CFL Number mean: 1.48939e-08 max: 4.87879e-06
deltaT = 0.676041
Time = 4.0564

diagonal:  Solving for Sb, Initial residual = 0, Final residual = 0, No Iterations 0
Saturation b  Min(Sb) = 0.002 Max(Sb) = 0.0169971
DICPCG:  Solving for p, Initial residual = 2.95472e-05, Final residual = 7.14962e-13, No Iterations 86
ExecutionTime = 0.45 s  ClockTime = 1 s

Coats CFL Number mean: 1.86347e-08 max: 8.2238e-06
deltaT = 0.811161
Time = 4.86756

diagonal:  Solving for Sb, Initial residual = 0, Final residual = 0, No Iterations 0
Saturation b  Min(Sb) = 0.002 Max(Sb) = 0.0199962
DICPCG:  Solving for p, Initial residual = 3.5514e-05, Final residual = 8.63074e-13, No Iterations 86
ExecutionTime = 0.45 s  ClockTime = 1 s

Coats CFL Number mean: 2.36685e-08 max: 1.3915e-05
deltaT = 0.973331
Time = 5.84089

diagonal:  Solving for Sb, Initial residual = 0, Final residual = 0, No Iterations 0
Saturation b  Min(Sb) = 0.002 Max(Sb) = 0.0235949
DICPCG:  Solving for p, Initial residual = 4.27016e-05, Final residual = 6.46549e-13, No Iterations 87
ExecutionTime = 0.46 s  ClockTime = 1 s

Coats CFL Number mean: 3.06555e-08 max: 2.36239e-05
deltaT = 1.16795
Time = 7.00884

diagonal:  Solving for Sb, Initial residual = 0, Final residual = 0, No Iterations 0
Saturation b  Min(Sb) = 0.002 Max(Sb) = 0.0279133
DICPCG:  Solving for p, Initial residual = 5.13651e-05, Final residual = 7.81418e-13, No Iterations 87
ExecutionTime = 0.47 s  ClockTime = 1 s

Coats CFL Number mean: 4.06804e-08 max: 4.0222e-05
deltaT = 1.40134
Time = 8.41019

diagonal:  Solving for Sb, Initial residual = 0, Final residual = 0, No Iterations 0
Saturation b  Min(Sb) = 0.002 Max(Sb) = 0.0330946
DICPCG:  Solving for p, Initial residual = 6.18079e-05, Final residual = 9.45045e-13, No Iterations 87
ExecutionTime = 0.48 s  ClockTime = 1 s

Coats CFL Number mean: 5.55551e-08 max: 6.86372e-05
deltaT = 1.68124
Time = 10.0914

diagonal:  Solving for Sb, Initial residual = 0, Final residual = 0, No Iterations 0
Saturation b  Min(Sb) = 0.002 Max(Sb) = 0.039311
DICPCG:  Solving for p, Initial residual = 7.44064e-05, Final residual = 7.75591e-13, No Iterations 88
ExecutionTime = 0.48 s  ClockTime = 1 s

Coats CFL Number mean: 7.83631e-08 max: 0.000117348
deltaT = 2.01694
Time = 12.1084

diagonal:  Solving for Sb, Initial residual = 0, Final residual = 0, No Iterations 0
Saturation b  Min(Sb) = 0.002 Max(Sb) = 0.0467687
DICPCG:  Solving for p, Initial residual = 8.96227e-05, Final residual = 9.362e-13, No Iterations 88
ExecutionTime = 0.49 s  ClockTime = 1 s

Coats CFL Number mean: 1.14403e-07 max: 0.000200952
deltaT = 2.42013
Time = 14.5285

diagonal:  Solving for Sb, Initial residual = 0, Final residual = 0, No Iterations 0
Saturation b  Min(Sb) = 0.002 Max(Sb) = 0.0557175
DICPCG:  Solving for p, Initial residual = 0.000108044, Final residual = 7.73544e-13, No Iterations 89
ExecutionTime = 0.5 s  ClockTime = 1 s

Coats CFL Number mean: 1.72904e-07 max: 0.000344686
deltaT = 2.90359
Time = 17.4321

diagonal:  Solving for Sb, Initial residual = 0, Final residual = 0, No Iterations 0
Saturation b  Min(Sb) = 0.002 Max(Sb) = 0.0664542
DICPCG:  Solving for p, Initial residual = 0.000130334, Final residual = 9.286e-13, No Iterations 89
ExecutionTime = 0.5 s  ClockTime = 1 s

Coats CFL Number mean: 2.69902e-07 max: 0.000591865
deltaT = 3.48431
Time = 20.9164

diagonal:  Solving for Sb, Initial residual = 0, Final residual = 0, No Iterations 0
Saturation b  Min(Sb) = 0.002 Max(Sb) = 0.0793385
DICPCG:  Solving for p, Initial residual = 0.000157378, Final residual = 6.73783e-13, No Iterations 90
ExecutionTime = 0.51 s  ClockTime = 1 s

Coats CFL Number mean: 4.3381e-07 max: 0.00101757
deltaT = 4.18059
Time = 25.097

diagonal:  Solving for Sb, Initial residual = 0, Final residual = 0, No Iterations 0
Saturation b  Min(Sb) = 0.002 Max(Sb) = 0.0947976
DICPCG:  Solving for p, Initial residual = 0.000190158, Final residual = 8.07509e-13, No Iterations 90
ExecutionTime = 0.52 s  ClockTime = 1 s

Coats CFL Number mean: 7.14714e-07 max: 0.00175065
deltaT = 5.01502
Time = 30.112

diagonal:  Solving for Sb, Initial residual = 0, Final residual = 0, No Iterations 0
Saturation b  Min(Sb) = 0.002 Max(Sb) = 0.113342
DICPCG:  Solving for p, Initial residual = 0.00022988, Final residual = 9.57982e-13, No Iterations 90
ExecutionTime = 0.52 s  ClockTime = 1 s

Coats CFL Number mean: 1.20189e-06 max: 0.00301302
deltaT = 6.01681
Time = 36.1288

diagonal:  Solving for Sb, Initial residual = 0, Final residual = 0, No Iterations 0
Saturation b  Min(Sb) = 0.002 Max(Sb) = 0.135588
DICPCG:  Solving for p, Initial residual = 0.00027805, Final residual = 6.81951e-13, No Iterations 91
ExecutionTime = 0.53 s  ClockTime = 1 s

Coats CFL Number mean: 2.05623e-06 max: 0.00518856
deltaT = 7.21493
Time = 43.3438

diagonal:  Solving for Sb, Initial residual = 0, Final residual = 0, No Iterations 0
Saturation b  Min(Sb) = 0.002 Max(Sb) = 0.162256
DICPCG:  Solving for p, Initial residual = 0.000336077, Final residual = 8.40774e-13, No Iterations 91
ExecutionTime = 0.54 s  ClockTime = 1 s

Coats CFL Number mean: 3.56535e-06 max: 0.00893027
deltaT = 8.65036
Time = 51.9941

diagonal:  Solving for Sb, Initial residual = 0, Final residual = 0, No Iterations 0
Saturation b  Min(Sb) = 0.002 Max(Sb) = 0.194209
DICPCG:  Solving for p, Initial residual = 0.000405593, Final residual = 6.92663e-13, No Iterations 92
ExecutionTime = 0.55 s  ClockTime = 1 s

Coats CFL Number mean: 6.2532e-06 max: 0.0153619
deltaT = 10.3732
Time = 62.3673

diagonal:  Solving for Sb, Initial residual = 0, Final residual = 0, No Iterations 0
Saturation b  Min(Sb) = 0.002 Max(Sb) = 0.232471
DICPCG:  Solving for p, Initial residual = 0.000487791, Final residual = 8.87567e-13, No Iterations 92
ExecutionTime = 0.56 s  ClockTime = 1 s

Coats CFL Number mean: 1.10787e-05 max: 0.0264065
deltaT = 12.4374
Time = 74.8047

diagonal:  Solving for Sb, Initial residual = 0, Final residual = 0, No Iterations 0
Saturation b  Min(Sb) = 0.002 Max(Sb) = 0.278204
DICPCG:  Solving for p, Initial residual = 0.000582024, Final residual = 7.41985e-13, No Iterations 93
ExecutionTime = 0.56 s  ClockTime = 1 s

Coats CFL Number mean: 1.97921e-05 max: 0.0452977
deltaT = 14.9248
Time = 89.7295

diagonal:  Solving for Sb, Initial residual = 0, Final residual = 0, No Iterations 0
Saturation b  Min(Sb) = 0.002 Max(Sb) = 0.332724
DICPCG:  Solving for p, Initial residual = 0.000693726, Final residual = 7.83269e-13, No Iterations 94
ExecutionTime = 0.57 s  ClockTime = 1 s

Coats CFL Number mean: 3.56536e-05 max: 0.0775083
deltaT = 17.8555
Time = 107.585

diagonal:  Solving for Sb, Initial residual = 0, Final residual = 0, No Iterations 0
Saturation b  Min(Sb) = 0.002 Max(Sb) = 0.397047
DICPCG:  Solving for p, Initial residual = 0.000816599, Final residual = 7.88581e-13, No Iterations 95
ExecutionTime = 0.58 s  ClockTime = 1 s

Coats CFL Number mean: 6.43214e-05 max: 0.131232
deltaT = 21.3643
Time = 128.949

diagonal:  Solving for Sb, Initial residual = 0, Final residual = 0, No Iterations 0
Saturation b  Min(Sb) = 0.002 Max(Sb) = 0.471772
DICPCG:  Solving for p, Initial residual = 0.000955404, Final residual = 6.2314e-13, No Iterations 96
ExecutionTime = 0.59 s  ClockTime = 1 s

Coats CFL Number mean: 0.000116141 max: 0.219218
deltaT = 25.6371
Time = 154.586

diagonal:  Solving for Sb, Initial residual = 0, Final residual = 0, No Iterations 0
Saturation b  Min(Sb) = 0.002 Max(Sb) = 0.55591
DICPCG:  Solving for p, Initial residual = 0.00107692, Final residual = 7.18935e-13, No Iterations 96
ExecutionTime = 0.6 s  ClockTime = 1 s

Coats CFL Number mean: 0.000207197 max: 0.357119
deltaT = 30.6672
Time = 185.254

diagonal:  Solving for Sb, Initial residual = 0, Final residual = 0, No Iterations 0
Saturation b  Min(Sb) = 0.002 Max(Sb) = 0.643071
DICPCG:  Solving for p, Initial residual = 0.00110947, Final residual = 6.54291e-13, No Iterations 96
ExecutionTime = 0.6 s  ClockTime = 1 s

Coats CFL Number mean: 0.000329654 max: 0.538869
deltaT = 34.8895
Time = 220.143

diagonal:  Solving for Sb, Initial residual = 0, Final residual = 0, No Iterations 0
Saturation b  Min(Sb) = 0.002 Max(Sb) = 0.713371
DICPCG:  Solving for p, Initial residual = 0.00098892, Final residual = 8.69024e-13, No Iterations 97
ExecutionTime = 0.61 s  ClockTime = 1 s

Coats CFL Number mean: 0.000342092 max: 0.643547
deltaT = 38.8606
Time = 259.004

diagonal:  Solving for Sb, Initial residual = 0, Final residual = 0, No Iterations 0
Saturation b  Min(Sb) = 0.002 Max(Sb) = 0.753197
DICPCG:  Solving for p, Initial residual = 0.00104897, Final residual = 8.55855e-13, No Iterations 97
ExecutionTime = 0.62 s  ClockTime = 1 s

Coats CFL Number mean: 0.000256433 max: 0.562135
deltaT = 43.8981
Time = 302.902

diagonal:  Solving for Sb, Initial residual = 0, Final residual = 0, No Iterations 0
Saturation b  Min(Sb) = 0.002 Max(Sb) = 0.774526
DICPCG:  Solving for p, Initial residual = 0.00130325, Final residual = 8.9698e-13, No Iterations 96
ExecutionTime = 0.62 s  ClockTime = 1 s

Coats CFL Number mean: 0.000216594 max: 0.375235
deltaT = 52.19
Time = 355.092

diagonal:  Solving for Sb, Initial residual = 0, Final residual = 0, No Iterations 0
Saturation b  Min(Sb) = 0.002 Max(Sb) = 0.788544
DICPCG:  Solving for p, Initial residual = 0.00158539, Final residual = 7.22498e-13, No Iterations 96
ExecutionTime = 0.63 s  ClockTime = 1 s

Coats CFL Number mean: 0.00033158 max: 0.722373
deltaT = 54.0106
Time = 409.102

diagonal:  Solving for Sb, Initial residual = 0, Final residual = 0, No Iterations 0
Saturation b  Min(Sb) = 0.002 Max(Sb) = 0.797307
DICPCG:  Solving for p, Initial residual = 0.00156836, Final residual = 8.51605e-13, No Iterations 96
ExecutionTime = 0.64 s  ClockTime = 1 s

Coats CFL Number mean: 0.000610226 max: 1.22557
deltaT = 33.028
Time = 442.13

diagonal:  Solving for Sb, Initial residual = 0, Final residual = 0, No Iterations 0
Saturation b  Min(Sb) = 0.002 Max(Sb) = 0.800958
DICPCG:  Solving for p, Initial residual = 0.000893807, Final residual = 9.28618e-13, No Iterations 95
ExecutionTime = 0.65 s  ClockTime = 1 s

Coats CFL Number mean: 0.000477 max: 0.822541
deltaT = 29.986
Time = 472.116

diagonal:  Solving for Sb, Initial residual = 0, Final residual = 0, No Iterations 0
Saturation b  Min(Sb) = 0.002 Max(Sb) = 0.802582
DICPCG:  Solving for p, Initial residual = 0.00075071, Final residual = 5.60697e-13, No Iterations 96
ExecutionTime = 0.66 s  ClockTime = 1 s

Coats CFL Number mean: 0.000464477 max: 0.766677
deltaT = 29.2122
Time = 501.328

diagonal:  Solving for Sb, Initial residual = 0, Final residual = 0, No Iterations 0
Saturation b  Min(Sb) = 0.002 Max(Sb) = 0.804323
DICPCG:  Solving for p, Initial residual = 0.000751261, Final residual = 9.43561e-13, No Iterations 95
ExecutionTime = 0.66 s  ClockTime = 1 s

Coats CFL Number mean: 0.00044528 max: 0.695589
deltaT = 31.4592
Time = 532.788

diagonal:  Solving for Sb, Initial residual = 0, Final residual = 0, No Iterations 0
Saturation b  Min(Sb) = 0.002 Max(Sb) = 0.806259
DICPCG:  Solving for p, Initial residual = 0.000881254, Final residual = 6.36627e-13, No Iterations 96
ExecutionTime = 0.67 s  ClockTime = 1 s

Coats CFL Number mean: 0.000469334 max: 0.700729
deltaT = 33.5881
Time = 566.376

diagonal:  Solving for Sb, Initial residual = 0, Final residual = 0, No Iterations 0
Saturation b  Min(Sb) = 0.002 Max(Sb) = 0.808251
DICPCG:  Solving for p, Initial residual = 0.000993511, Final residual = 8.44579e-13, No Iterations 96
ExecutionTime = 0.68 s  ClockTime = 1 s

Coats CFL Number mean: 0.000511366 max: 0.696404
deltaT = 36.0457
Time = 602.422

diagonal:  Solving for Sb, Initial residual = 0, Final residual = 0, No Iterations 0
Saturation b  Min(Sb) = 0.002 Max(Sb) = 0.810225
DICPCG:  Solving for p, Initial residual = 0.00106046, Final residual = 9.73061e-13, No Iterations 96
ExecutionTime = 0.69 s  ClockTime = 1 s

Coats CFL Number mean: 0.0005899 max: 0.697116
deltaT = 38.5752
Time = 640.997

diagonal:  Solving for Sb, Initial residual = 0, Final residual = 0, No Iterations 0
Saturation b  Min(Sb) = 0.002 Max(Sb) = 0.812129
DICPCG:  Solving for p, Initial residual = 0.00104698, Final residual = 6.3239e-13, No Iterations 96
ExecutionTime = 0.7 s  ClockTime = 1 s

Coats CFL Number mean: 0.000698092 max: 0.877928
deltaT = 32.7745
Time = 673.771

diagonal:  Solving for Sb, Initial residual = 0, Final residual = 0, No Iterations 0
Saturation b  Min(Sb) = 0.002 Max(Sb) = 0.813561
DICPCG:  Solving for p, Initial residual = 0.000863652, Final residual = 9.30783e-13, No Iterations 96
ExecutionTime = 0.7 s  ClockTime = 1 s

Coats CFL Number mean: 0.000664152 max: 0.808443
deltaT = 30.2533
Time = 704.025

diagonal:  Solving for Sb, Initial residual = 0, Final residual = 0, No Iterations 0
Saturation b  Min(Sb) = 0.002 Max(Sb) = 0.814752
DICPCG:  Solving for p, Initial residual = 0.000779193, Final residual = 6.47135e-13, No Iterations 96
ExecutionTime = 0.71 s  ClockTime = 1 s

Coats CFL Number mean: 0.000678252 max: 0.75142
deltaT = 30.0418
Time = 734.066

diagonal:  Solving for Sb, Initial residual = 0, Final residual = 0, No Iterations 0
Saturation b  Min(Sb) = 0.002 Max(Sb) = 0.815828
DICPCG:  Solving for p, Initial residual = 0.000743892, Final residual = 9.03925e-13, No Iterations 96
ExecutionTime = 0.72 s  ClockTime = 1 s

Coats CFL Number mean: 0.000721837 max: 0.723903
deltaT = 30.9126
Time = 764.979

diagonal:  Solving for Sb, Initial residual = 0, Final residual = 0, No Iterations 0
Saturation b  Min(Sb) = 0.002 Max(Sb) = 0.816844
DICPCG:  Solving for p, Initial residual = 0.000742258, Final residual = 7.08816e-13, No Iterations 98
ExecutionTime = 0.73 s  ClockTime = 1 s

Coats CFL Number mean: 0.000761914 max: 0.727829
deltaT = 31.8423
Time = 796.821

diagonal:  Solving for Sb, Initial residual = 0, Final residual = 0, No Iterations 0
Saturation b  Min(Sb) = 0.002 Max(Sb) = 0.817808
DICPCG:  Solving for p, Initial residual = 0.000806618, Final residual = 7.73356e-13, No Iterations 98
ExecutionTime = 0.74 s  ClockTime = 1 s

Coats CFL Number mean: 0.000791812 max: 0.683746
deltaT = 34.737
Time = 831.558

diagonal:  Solving for Sb, Initial residual = 0, Final residual = 0, No Iterations 0
Saturation b  Min(Sb) = 0.002 Max(Sb) = 0.81878
DICPCG:  Solving for p, Initial residual = 0.000893034, Final residual = 7.80933e-13, No Iterations 98
ExecutionTime = 0.74 s  ClockTime = 1 s

Coats CFL Number mean: 0.000874698 max: 0.71131
deltaT = 36.5653
Time = 868.123

diagonal:  Solving for Sb, Initial residual = 0, Final residual = 0, No Iterations 0
Saturation b  Min(Sb) = 0.002 Max(Sb) = 0.819723
DICPCG:  Solving for p, Initial residual = 0.000945407, Final residual = 8.25533e-13, No Iterations 97
ExecutionTime = 0.75 s  ClockTime = 1 s

Coats CFL Number mean: 0.000933852 max: 0.845129
deltaT = 32.2803
Time = 900.404

diagonal:  Solving for Sb, Initial residual = 0, Final residual = 0, No Iterations 0
Saturation b  Min(Sb) = 0.002 Max(Sb) = 0.820483
DICPCG:  Solving for p, Initial residual = 0.000877184, Final residual = 9.73908e-13, No Iterations 94
ExecutionTime = 0.76 s  ClockTime = 1 s

Coats CFL Number mean: 0.00084156 max: 0.74917
deltaT = 32.2803
Time = 932.684

diagonal:  Solving for Sb, Initial residual = 0, Final residual = 0, No Iterations 0
Saturation b  Min(Sb) = 0.002 Max(Sb) = 0.821185
DICPCG:  Solving for p, Initial residual = 0.000871417, Final residual = 7.63738e-13, No Iterations 96
ExecutionTime = 0.77 s  ClockTime = 1 s

Coats CFL Number mean: 0.000889342 max: 0.753173
deltaT = 32.0261
Time = 964.71

diagonal:  Solving for Sb, Initial residual = 0, Final residual = 0, No Iterations 0
Saturation b  Min(Sb) = 0.002 Max(Sb) = 0.821833
DICPCG:  Solving for p, Initial residual = 0.000767398, Final residual = 9.20181e-13, No Iterations 96
ExecutionTime = 0.78 s  ClockTime = 1 s

Coats CFL Number mean: 0.000957105 max: 0.752705
deltaT = 31.7739
Time = 996.484

diagonal:  Solving for Sb, Initial residual = 0, Final residual = 0, No Iterations 0
Saturation b  Min(Sb) = 0.002 Max(Sb) = 0.822432
DICPCG:  Solving for p, Initial residual = 0.000765798, Final residual = 8.47957e-13, No Iterations 95
ExecutionTime = 0.78 s  ClockTime = 1 s

Coats CFL Number mean: 0.0010285 max: 0.732206
deltaT = 32.2864
Time = 1028.77

diagonal:  Solving for Sb, Initial residual = 0, Final residual = 0, No Iterations 0
Saturation b  Min(Sb) = 0.002 Max(Sb) = 0.823001
DICPCG:  Solving for p, Initial residual = 0.000710854, Final residual = 7.83331e-13, No Iterations 97
ExecutionTime = 0.79 s  ClockTime = 1 s

Coats CFL Number mean: 0.0010937 max: 0.745566
deltaT = 32.2864
Time = 1061.06

diagonal:  Solving for Sb, Initial residual = 0, Final residual = 0, No Iterations 0
Saturation b  Min(Sb) = 0.002 Max(Sb) = 0.823534
DICPCG:  Solving for p, Initial residual = 0.000710274, Final residual = 9.86775e-13, No Iterations 96
ExecutionTime = 0.8 s  ClockTime = 1 s

Coats CFL Number mean: 0.00110328 max: 0.713251
deltaT = 33.6662
Time = 1094.72

diagonal:  Solving for Sb, Initial residual = 0, Final residual = 0, No Iterations 0
Saturation b  Min(Sb) = 0.002 Max(Sb) = 0.824056
DICPCG:  Solving for p, Initial residual = 0.000783124, Final residual = 8.25544e-13, No Iterations 96
ExecutionTime = 0.8 s  ClockTime = 1 s

Coats CFL Number mean: 0.00113907 max: 0.785072
deltaT = 32.0105
Time = 1126.73

diagonal:  Solving for Sb, Initial residual = 0, Final residual = 0, No Iterations 0
Saturation b  Min(Sb) = 0.002 Max(Sb) = 0.824521
DICPCG:  Solving for p, Initial residual = 0.000842741, Final residual = 6.21587e-13, No Iterations 96
ExecutionTime = 0.81 s  ClockTime = 1 s

Coats CFL Number mean: 0.0010743 max: 0.738761
deltaT = 32.2772
Time = 1159.01

diagonal:  Solving for Sb, Initial residual = 0, Final residual = 0, No Iterations 0
Saturation b  Min(Sb) = 0.002 Max(Sb) = 0.824961
DICPCG:  Solving for p, Initial residual = 0.000916543, Final residual = 7.61449e-13, No Iterations 95
ExecutionTime = 0.82 s  ClockTime = 1 s

Coats CFL Number mean: 0.0010904 max: 0.710947
deltaT = 33.9911
Time = 1193

diagonal:  Solving for Sb, Initial residual = 0, Final residual = 0, No Iterations 0
Saturation b  Min(Sb) = 0.002 Max(Sb) = 0.8254
DICPCG:  Solving for p, Initial residual = 0.000957735, Final residual = 9.91892e-13, No Iterations 93
ExecutionTime = 0.83 s  ClockTime = 1 s

Coats CFL Number mean: 0.00119337 max: 0.731136
deltaT = 34.6091
Time = 1227.61

diagonal:  Solving for Sb, Initial residual = 0, Final residual = 0, No Iterations 0
Saturation b  Min(Sb) = 0.002 Max(Sb) = 0.825822
DICPCG:  Solving for p, Initial residual = 0.000843284, Final residual = 5.22318e-13, No Iterations 96
ExecutionTime = 0.84 s  ClockTime = 1 s

Coats CFL Number mean: 0.00130277 max: 0.762113
deltaT = 33.9855
Time = 1261.6

diagonal:  Solving for Sb, Initial residual = 0, Final residual = 0, No Iterations 0
Saturation b  Min(Sb) = 0.002 Max(Sb) = 0.826212
DICPCG:  Solving for p, Initial residual = 0.000766842, Final residual = 8.175e-13, No Iterations 95
ExecutionTime = 0.84 s  ClockTime = 1 s

Coats CFL Number mean: 0.0013724 max: 0.751876
deltaT = 33.6793
Time = 1295.28

diagonal:  Solving for Sb, Initial residual = 0, Final residual = 0, No Iterations 0
Saturation b  Min(Sb) = 0.002 Max(Sb) = 0.826577
DICPCG:  Solving for p, Initial residual = 0.000712465, Final residual = 7.9683e-13, No Iterations 96
ExecutionTime = 0.85 s  ClockTime = 1 s

Coats CFL Number mean: 0.0014166 max: 0.773025
deltaT = 32.4976
Time = 1327.77

diagonal:  Solving for Sb, Initial residual = 0, Final residual = 0, No Iterations 0
Saturation b  Min(Sb) = 0.002 Max(Sb) = 0.826909
DICPCG:  Solving for p, Initial residual = 0.000711183, Final residual = 8.58553e-13, No Iterations 96
ExecutionTime = 0.86 s  ClockTime = 1 s

Coats CFL Number mean: 0.00137141 max: 0.751339
deltaT = 32.2125
Time = 1359.99

diagonal:  Solving for Sb, Initial residual = 0, Final residual = 0, No Iterations 0
Saturation b  Min(Sb) = 0.002 Max(Sb) = 0.827221
DICPCG:  Solving for p, Initial residual = 0.000800808, Final residual = 9.05155e-13, No Iterations 96
ExecutionTime = 0.87 s  ClockTime = 1 s

Coats CFL Number mean: 0.00134663 max: 0.721268
deltaT = 33.3946
Time = 1393.38

diagonal:  Solving for Sb, Initial residual = 0, Final residual = 0, No Iterations 0
Saturation b  Min(Sb) = 0.002 Max(Sb) = 0.827529
DICPCG:  Solving for p, Initial residual = 0.000898636, Final residual = 8.76711e-13, No Iterations 97
ExecutionTime = 0.88 s  ClockTime = 1 s

Coats CFL Number mean: 0.00139154 max: 0.712548
deltaT = 35.0157
Time = 1428.4

diagonal:  Solving for Sb, Initial residual = 0, Final residual = 0, No Iterations 0
Saturation b  Min(Sb) = 0.002 Max(Sb) = 0.827839
DICPCG:  Solving for p, Initial residual = 0.000962107, Final residual = 9.57532e-13, No Iterations 97
ExecutionTime = 0.88 s  ClockTime = 1 s

Coats CFL Number mean: 0.00147709 max: 0.707245
deltaT = 36.8207
Time = 1465.22

diagonal:  Solving for Sb, Initial residual = 0, Final residual = 0, No Iterations 0
Saturation b  Min(Sb) = 0.002 Max(Sb) = 0.828151
DICPCG:  Solving for p, Initial residual = 0.000952417, Final residual = 7.46288e-13, No Iterations 97
ExecutionTime = 0.89 s  ClockTime = 1 s

Coats CFL Number mean: 0.00160725 max: 0.732377
deltaT = 37.6041
Time = 1502.82

diagonal:  Solving for Sb, Initial residual = 0, Final residual = 0, No Iterations 0
Saturation b  Min(Sb) = 0.002 Max(Sb) = 0.828456
DICPCG:  Solving for p, Initial residual = 0.000819301, Final residual = 7.9909e-13, No Iterations 97
ExecutionTime = 0.9 s  ClockTime = 1 s

Coats CFL Number mean: 0.00172178 max: 0.861228
deltaT = 32.6839
Time = 1535.5

diagonal:  Solving for Sb, Initial residual = 0, Final residual = 0, No Iterations 0
Saturation b  Min(Sb) = 0.002 Max(Sb) = 0.828705
DICPCG:  Solving for p, Initial residual = 0.00079168, Final residual = 9.6452e-13, No Iterations 96
ExecutionTime = 0.91 s  ClockTime = 1 s

Coats CFL Number mean: 0.00155586 max: 0.761854
deltaT = 32.0787
Time = 1567.58

diagonal:  Solving for Sb, Initial residual = 0, Final residual = 0, No Iterations 0
Saturation b  Min(Sb) = 0.002 Max(Sb) = 0.828935
DICPCG:  Solving for p, Initial residual = 0.000806041, Final residual = 7.64926e-13, No Iterations 96
ExecutionTime = 0.92 s  ClockTime = 1 s

Coats CFL Number mean: 0.00157523 max: 0.718693
deltaT = 33.3244
Time = 1600.91

diagonal:  Solving for Sb, Initial residual = 0, Final residual = 0, No Iterations 0
Saturation b  Min(Sb) = 0.002 Max(Sb) = 0.829165
DICPCG:  Solving for p, Initial residual = 0.000823312, Final residual = 9.3552e-13, No Iterations 97
ExecutionTime = 0.92 s  ClockTime = 1 s

Coats CFL Number mean: 0.00166341 max: 0.741407
deltaT = 33.6544
Time = 1634.56

diagonal:  Solving for Sb, Initial residual = 0, Final residual = 0, No Iterations 0
Saturation b  Min(Sb) = 0.002 Max(Sb) = 0.829389
DICPCG:  Solving for p, Initial residual = 0.000842981, Final residual = 6.76948e-13, No Iterations 98
ExecutionTime = 0.93 s  ClockTime = 1 s

Coats CFL Number mean: 0.00168965 max: 0.719781
deltaT = 35.0566
Time = 1669.62

diagonal:  Solving for Sb, Initial residual = 0, Final residual = 0, No Iterations 0
Saturation b  Min(Sb) = 0.002 Max(Sb) = 0.829614
DICPCG:  Solving for p, Initial residual = 0.00087145, Final residual = 7.47741e-13, No Iterations 98
ExecutionTime = 0.94 s  ClockTime = 1 s

Coats CFL Number mean: 0.00177016 max: 0.680953
deltaT = 38.2802
Time = 1707.9

diagonal:  Solving for Sb, Initial residual = 0, Final residual = 0, No Iterations 0
Saturation b  Min(Sb) = 0.002 Max(Sb) = 0.829855
DICPCG:  Solving for p, Initial residual = 0.000901724, Final residual = 7.60756e-13, No Iterations 98
ExecutionTime = 0.95 s  ClockTime = 1 s

Coats CFL Number mean: 0.00194866 max: 0.842611
deltaT = 33.9392
Time = 1741.84

diagonal:  Solving for Sb, Initial residual = 0, Final residual = 0, No Iterations 0
Saturation b  Min(Sb) = 0.002 Max(Sb) = 0.830058
DICPCG:  Solving for p, Initial residual = 0.000784168, Final residual = 9.03883e-13, No Iterations 97
ExecutionTime = 0.96 s  ClockTime = 1 s

Coats CFL Number mean: 0.00175247 max: 0.792073
deltaT = 31.9428
Time = 1773.78

diagonal:  Solving for Sb, Initial residual = 0, Final residual = 0, No Iterations 0
Saturation b  Min(Sb) = 0.002 Max(Sb) = 0.830238
DICPCG:  Solving for p, Initial residual = 0.000823206, Final residual = 8.27578e-13, No Iterations 97
ExecutionTime = 0.96 s  ClockTime = 1 s

Coats CFL Number mean: 0.00168147 max: 0.73086
deltaT = 32.5881
Time = 1806.37

diagonal:  Solving for Sb, Initial residual = 0, Final residual = 0, No Iterations 0
Saturation b  Min(Sb) = 0.002 Max(Sb) = 0.830415
DICPCG:  Solving for p, Initial residual = 0.000897125, Final residual = 9.74716e-13, No Iterations 97
ExecutionTime = 0.97 s  ClockTime = 1 s

Coats CFL Number mean: 0.00176979 max: 0.707266
deltaT = 34.3401
Time = 1840.71

diagonal:  Solving for Sb, Initial residual = 0, Final residual = 0, No Iterations 0
Saturation b  Min(Sb) = 0.002 Max(Sb) = 0.830597
DICPCG:  Solving for p, Initial residual = 0.000917644, Final residual = 9.68269e-13, No Iterations 96
ExecutionTime = 0.98 s  ClockTime = 1 s

Coats CFL Number mean: 0.00193985 max: 0.727871
deltaT = 35.1032
Time = 1875.81

diagonal:  Solving for Sb, Initial residual = 0, Final residual = 0, No Iterations 0
Saturation b  Min(Sb) = 0.002 Max(Sb) = 0.830779
DICPCG:  Solving for p, Initial residual = 0.000853965, Final residual = 5.29737e-13, No Iterations 99
ExecutionTime = 0.99 s  ClockTime = 1 s

Coats CFL Number mean: 0.00204737 max: 0.761198
deltaT = 34.3317
Time = 1910.14

diagonal:  Solving for Sb, Initial residual = 0, Final residual = 0, No Iterations 0
Saturation b  Min(Sb) = 0.002 Max(Sb) = 0.830951
DICPCG:  Solving for p, Initial residual = 0.000740022, Final residual = 5.48306e-13, No Iterations 99
ExecutionTime = 1 s  ClockTime = 1 s

Coats CFL Number mean: 0.00202388 max: 0.745
deltaT = 34.3317
Time = 1944.48

diagonal:  Solving for Sb, Initial residual = 0, Final residual = 0, No Iterations 0
Saturation b  Min(Sb) = 0.002 Max(Sb) = 0.831118
DICPCG:  Solving for p, Initial residual = 0.000735177, Final residual = 9.28973e-13, No Iterations 98
ExecutionTime = 1 s  ClockTime = 1 s

Coats CFL Number mean: 0.00201788 max: 0.7821
deltaT = 32.8551
Time = 1977.33

diagonal:  Solving for Sb, Initial residual = 0, Final residual = 0, No Iterations 0
Saturation b  Min(Sb) = 0.002 Max(Sb) = 0.831271
DICPCG:  Solving for p, Initial residual = 0.000766686, Final residual = 7.99979e-13, No Iterations 98
ExecutionTime = 1.01 s  ClockTime = 1 s

Coats CFL Number mean: 0.00192129 max: 0.753371
deltaT = 32.5018
Time = 2009.83

diagonal:  Solving for Sb, Initial residual = 0, Final residual = 0, No Iterations 0
Saturation b  Min(Sb) = 0.002 Max(Sb) = 0.831417
DICPCG:  Solving for p, Initial residual = 0.00081862, Final residual = 8.26568e-13, No Iterations 95
ExecutionTime = 1.02 s  ClockTime = 1 s

Coats CFL Number mean: 0.00191057 max: 0.723656
deltaT = 33.5974
Time = 2043.43

diagonal:  Solving for Sb, Initial residual = 0, Final residual = 0, No Iterations 0
Saturation b  Min(Sb) = 0.002 Max(Sb) = 0.831566
DICPCG:  Solving for p, Initial residual = 0.000910211, Final residual = 9.03495e-13, No Iterations 97
ExecutionTime = 1.03 s  ClockTime = 1 s

Coats CFL Number mean: 0.00200944 max: 0.708924
deltaT = 35.1973
Time = 2078.63

diagonal:  Solving for Sb, Initial residual = 0, Final residual = 0, No Iterations 0
Saturation b  Min(Sb) = 0.002 Max(Sb) = 0.831719
DICPCG:  Solving for p, Initial residual = 0.000963394, Final residual = 7.55641e-13, No Iterations 98
ExecutionTime = 1.04 s  ClockTime = 1 s

Coats CFL Number mean: 0.00217555 max: 0.714624
deltaT = 36.5172
Time = 2115.14

diagonal:  Solving for Sb, Initial residual = 0, Final residual = 0, No Iterations 0
Saturation b  Min(Sb) = 0.002 Max(Sb) = 0.831876
DICPCG:  Solving for p, Initial residual = 0.000912031, Final residual = 8.32917e-13, No Iterations 98
ExecutionTime = 1.04 s  ClockTime = 1 s

Coats CFL Number mean: 0.00235056 max: 0.764809
deltaT = 35.6155
Time = 2150.76

diagonal:  Solving for Sb, Initial residual = 0, Final residual = 0, No Iterations 0
Saturation b  Min(Sb) = 0.002 Max(Sb) = 0.832026
DICPCG:  Solving for p, Initial residual = 0.000781156, Final residual = 9.748e-13, No Iterations 98
ExecutionTime = 1.05 s  ClockTime = 1 s

Coats CFL Number mean: 0.00235945 max: 0.797821
deltaT = 33.1307
Time = 2183.89

diagonal:  Solving for Sb, Initial residual = 0, Final residual = 0, No Iterations 0
Saturation b  Min(Sb) = 0.002 Max(Sb) = 0.832159
DICPCG:  Solving for p, Initial residual = 0.000689192, Final residual = 9.84878e-13, No Iterations 98
ExecutionTime = 1.06 s  ClockTime = 1 s

Coats CFL Number mean: 0.00220688 max: 0.758037
deltaT = 32.7455
Time = 2216.64

diagonal:  Solving for Sb, Initial residual = 0, Final residual = 0, No Iterations 0
Saturation b  Min(Sb) = 0.002 Max(Sb) = 0.832286
DICPCG:  Solving for p, Initial residual = 0.000749144, Final residual = 9.49954e-13, No Iterations 98
ExecutionTime = 1.07 s  ClockTime = 1 s

Coats CFL Number mean: 0.00217067 max: 0.727369
deltaT = 33.5345
Time = 2250.17

diagonal:  Solving for Sb, Initial residual = 0, Final residual = 0, No Iterations 0
Saturation b  Min(Sb) = 0.002 Max(Sb) = 0.832413
DICPCG:  Solving for p, Initial residual = 0.000832022, Final residual = 9.11871e-13, No Iterations 98
ExecutionTime = 1.08 s  ClockTime = 1 s

Coats CFL Number mean: 0.00221871 max: 0.711259
deltaT = 35.2542
Time = 2285.43

diagonal:  Solving for Sb, Initial residual = 0, Final residual = 0, No Iterations 0
Saturation b  Min(Sb) = 0.002 Max(Sb) = 0.832547
DICPCG:  Solving for p, Initial residual = 0.000896595, Final residual = 6.84908e-13, No Iterations 98
ExecutionTime = 1.08 s  ClockTime = 1 s

Coats CFL Number mean: 0.00235435 max: 0.714563
deltaT = 36.6834
Time = 2322.11

diagonal:  Solving for Sb, Initial residual = 0, Final residual = 0, No Iterations 0
Saturation b  Min(Sb) = 0.002 Max(Sb) = 0.832685
DICPCG:  Solving for p, Initial residual = 0.000919127, Final residual = 6.78105e-13, No Iterations 96
ExecutionTime = 1.09 s  ClockTime = 1 s

Coats CFL Number mean: 0.00249678 max: 0.704624
deltaT = 38.81
Time = 2360.92

diagonal:  Solving for Sb, Initial residual = 0, Final residual = 0, No Iterations 0
Saturation b  Min(Sb) = 0.002 Max(Sb) = 0.832832
DICPCG:  Solving for p, Initial residual = 0.00093074, Final residual = 7.12568e-13, No Iterations 98
ExecutionTime = 1.1 s  ClockTime = 1 s

Coats CFL Number mean: 0.00271325 max: 0.857102
deltaT = 33.8344
Time = 2394.75

diagonal:  Solving for Sb, Initial residual = 0, Final residual = 0, No Iterations 0
Saturation b  Min(Sb) = 0.002 Max(Sb) = 0.832954
DICPCG:  Solving for p, Initial residual = 0.000802361, Final residual = 6.3911e-13, No Iterations 98
ExecutionTime = 1.11 s  ClockTime = 1 s

Coats CFL Number mean: 0.00242083 max: 0.776038
deltaT = 32.5656
Time = 2427.32

diagonal:  Solving for Sb, Initial residual = 0, Final residual = 0, No Iterations 0
Saturation b  Min(Sb) = 0.002 Max(Sb) = 0.833066
DICPCG:  Solving for p, Initial residual = 0.000780713, Final residual = 8.47928e-13, No Iterations 96
ExecutionTime = 1.12 s  ClockTime = 1 s

Coats CFL Number mean: 0.00237717 max: 0.728107
deltaT = 33.4114
Time = 2460.73

diagonal:  Solving for Sb, Initial residual = 0, Final residual = 0, No Iterations 0
Saturation b  Min(Sb) = 0.002 Max(Sb) = 0.833178
DICPCG:  Solving for p, Initial residual = 0.000783781, Final residual = 7.19446e-13, No Iterations 98
ExecutionTime = 1.12 s  ClockTime = 1 s

Coats CFL Number mean: 0.00246915 max: 0.717905
deltaT = 34.7845
Time = 2495.51

diagonal:  Solving for Sb, Initial residual = 0, Final residual = 0, No Iterations 0
Saturation b  Min(Sb) = 0.002 Max(Sb) = 0.833296
DICPCG:  Solving for p, Initial residual = 0.000820572, Final residual = 9.06041e-13, No Iterations 98
ExecutionTime = 1.13 s  ClockTime = 1 s

Coats CFL Number mean: 0.00258518 max: 0.738219
deltaT = 35.2744
Time = 2530.79

diagonal:  Solving for Sb, Initial residual = 0, Final residual = 0, No Iterations 0
Saturation b  Min(Sb) = 0.002 Max(Sb) = 0.833414
DICPCG:  Solving for p, Initial residual = 0.000828357, Final residual = 7.76423e-13, No Iterations 98
ExecutionTime = 1.14 s  ClockTime = 1 s

Coats CFL Number mean: 0.00263596 max: 0.690512
deltaT = 37.9879
Time = 2568.78

diagonal:  Solving for Sb, Initial residual = 0, Final residual = 0, No Iterations 0
Saturation b  Min(Sb) = 0.002 Max(Sb) = 0.833542
DICPCG:  Solving for p, Initial residual = 0.000855964, Final residual = 8.02551e-13, No Iterations 98
ExecutionTime = 1.15 s  ClockTime = 1 s

Coats CFL Number mean: 0.00285831 max: 0.812675
deltaT = 34.7318
Time = 2603.51

diagonal:  Solving for Sb, Initial residual = 0, Final residual = 0, No Iterations 0
Saturation b  Min(Sb) = 0.002 Max(Sb) = 0.833657
DICPCG:  Solving for p, Initial residual = 0.000782809, Final residual = 7.97305e-13, No Iterations 95
ExecutionTime = 1.16 s  ClockTime = 1 s

Coats CFL Number mean: 0.00263129 max: 0.793316
deltaT = 32.8287
Time = 2636.34

diagonal:  Solving for Sb, Initial residual = 0, Final residual = 0, No Iterations 0
Saturation b  Min(Sb) = 0.002 Max(Sb) = 0.833761
DICPCG:  Solving for p, Initial residual = 0.00081643, Final residual = 9.32852e-13, No Iterations 97
ExecutionTime = 1.17 s  ClockTime = 1 s

Coats CFL Number mean: 0.00251397 max: 0.741251
deltaT = 32.8287
Time = 2669.17

diagonal:  Solving for Sb, Initial residual = 0, Final residual = 0, No Iterations 0
Saturation b  Min(Sb) = 0.002 Max(Sb) = 0.833861
DICPCG:  Solving for p, Initial residual = 0.000863143, Final residual = 6.64765e-13, No Iterations 98
ExecutionTime = 1.17 s  ClockTime = 1 s

Coats CFL Number mean: 0.00256109 max: 0.709853
deltaT = 34.277
Time = 2703.44

diagonal:  Solving for Sb, Initial residual = 0, Final residual = 0, No Iterations 0
Saturation b  Min(Sb) = 0.002 Max(Sb) = 0.833967
DICPCG:  Solving for p, Initial residual = 0.000879932, Final residual = 8.42865e-13, No Iterations 98
ExecutionTime = 1.18 s  ClockTime = 1 s

Coats CFL Number mean: 0.00274264 max: 0.712837
deltaT = 35.8837
Time = 2739.33

diagonal:  Solving for Sb, Initial residual = 0, Final residual = 0, No Iterations 0
Saturation b  Min(Sb) = 0.002 Max(Sb) = 0.834078
DICPCG:  Solving for p, Initial residual = 0.000843045, Final residual = 7.39529e-13, No Iterations 99
ExecutionTime = 1.19 s  ClockTime = 1 s

Coats CFL Number mean: 0.00294072 max: 0.746624
deltaT = 35.8837
Time = 2775.21

diagonal:  Solving for Sb, Initial residual = 0, Final residual = 0, No Iterations 0
Saturation b  Min(Sb) = 0.002 Max(Sb) = 0.83419
DICPCG:  Solving for p, Initial residual = 0.000751676, Final residual = 7.29529e-13, No Iterations 99
ExecutionTime = 1.2 s  ClockTime = 1 s

Coats CFL Number mean: 0.00297418 max: 0.769119
deltaT = 34.7623
Time = 2809.97

diagonal:  Solving for Sb, Initial residual = 0, Final residual = 0, No Iterations 0
Saturation b  Min(Sb) = 0.002 Max(Sb) = 0.834295
DICPCG:  Solving for p, Initial residual = 0.000718689, Final residual = 6.7815e-13, No Iterations 99
ExecutionTime = 1.21 s  ClockTime = 1 s

Coats CFL Number mean: 0.00287946 max: 0.784629
deltaT = 33.1822
Time = 2843.15

diagonal:  Solving for Sb, Initial residual = 0, Final residual = 0, No Iterations 0
Saturation b  Min(Sb) = 0.002 Max(Sb) = 0.834393
DICPCG:  Solving for p, Initial residual = 0.000745111, Final residual = 9.24421e-13, No Iterations 98
ExecutionTime = 1.21 s  ClockTime = 1 s

Coats CFL Number mean: 0.00273982 max: 0.753849
deltaT = 32.6795
Time = 2875.83

diagonal:  Solving for Sb, Initial residual = 0, Final residual = 0, No Iterations 0
Saturation b  Min(Sb) = 0.002 Max(Sb) = 0.834488
DICPCG:  Solving for p, Initial residual = 0.000794659, Final residual = 7.19601e-13, No Iterations 98
ExecutionTime = 1.22 s  ClockTime = 1 s

Coats CFL Number mean: 0.00270228 max: 0.716628
deltaT = 33.7169
Time = 2909.55

diagonal:  Solving for Sb, Initial residual = 0, Final residual = 0, No Iterations 0
Saturation b  Min(Sb) = 0.002 Max(Sb) = 0.834584
DICPCG:  Solving for p, Initial residual = 0.000876861, Final residual = 6.95414e-13, No Iterations 98
ExecutionTime = 1.23 s  ClockTime = 1 s

Coats CFL Number mean: 0.0028173 max: 0.703125
deltaT = 35.4313
Time = 2944.98

diagonal:  Solving for Sb, Initial residual = 0, Final residual = 0, No Iterations 0
Saturation b  Min(Sb) = 0.002 Max(Sb) = 0.834688
DICPCG:  Solving for p, Initial residual = 0.000928561, Final residual = 9.37765e-13, No Iterations 98
ExecutionTime = 1.24 s  ClockTime = 1 s

Coats CFL Number mean: 0.00302414 max: 0.704588
deltaT = 37.364
Time = 2982.35

diagonal:  Solving for Sb, Initial residual = 0, Final residual = 0, No Iterations 0
Saturation b  Min(Sb) = 0.002 Max(Sb) = 0.834799
DICPCG:  Solving for p, Initial residual = 0.000894746, Final residual = 6.01501e-13, No Iterations 99
ExecutionTime = 1.24 s  ClockTime = 2 s

Coats CFL Number mean: 0.00328011 max: 0.76992
deltaT = 36.0295
Time = 3018.38

diagonal:  Solving for Sb, Initial residual = 0, Final residual = 0, No Iterations 0
Saturation b  Min(Sb) = 0.002 Max(Sb) = 0.834905
DICPCG:  Solving for p, Initial residual = 0.000765691, Final residual = 7.55379e-13, No Iterations 98
ExecutionTime = 1.25 s  ClockTime = 2 s

Coats CFL Number mean: 0.00323284 max: 0.801158
deltaT = 33.5868
Time = 3051.96

diagonal:  Solving for Sb, Initial residual = 0, Final residual = 0, No Iterations 0
Saturation b  Min(Sb) = 0.002 Max(Sb) = 0.835
DICPCG:  Solving for p, Initial residual = 0.000678668, Final residual = 7.65654e-13, No Iterations 99
ExecutionTime = 1.26 s  ClockTime = 2 s

Coats CFL Number mean: 0.00303341 max: 0.766329
deltaT = 32.4673
Time = 3084.43

diagonal:  Solving for Sb, Initial residual = 0, Final residual = 0, No Iterations 0
Saturation b  Min(Sb) = 0.002 Max(Sb) = 0.835089
DICPCG:  Solving for p, Initial residual = 0.000723725, Final residual = 9.58796e-13, No Iterations 99
ExecutionTime = 1.27 s  ClockTime = 2 s

Coats CFL Number mean: 0.00292576 max: 0.720185
deltaT = 33.6065
Time = 3118.04

diagonal:  Solving for Sb, Initial residual = 0, Final residual = 0, No Iterations 0
Saturation b  Min(Sb) = 0.002 Max(Sb) = 0.835181
DICPCG:  Solving for p, Initial residual = 0.000810266, Final residual = 9.17238e-13, No Iterations 99
ExecutionTime = 1.28 s  ClockTime = 2 s

Coats CFL Number mean: 0.0030241 max: 0.708937
deltaT = 35.5087
Time = 3153.55

diagonal:  Solving for Sb, Initial residual = 0, Final residual = 0, No Iterations 0
Saturation b  Min(Sb) = 0.002 Max(Sb) = 0.83528
DICPCG:  Solving for p, Initial residual = 0.000876815, Final residual = 7.49542e-13, No Iterations 99
ExecutionTime = 1.29 s  ClockTime = 2 s

Coats CFL Number mean: 0.00321123 max: 0.708711
deltaT = 36.9291
Time = 3190.47

diagonal:  Solving for Sb, Initial residual = 0, Final residual = 0, No Iterations 0
Saturation b  Min(Sb) = 0.002 Max(Sb) = 0.835385
DICPCG:  Solving for p, Initial residual = 0.000883327, Final residual = 9.13399e-13, No Iterations 97
ExecutionTime = 1.3 s  ClockTime = 2 s

Coats CFL Number mean: 0.00338214 max: 0.700313
deltaT = 39.3375
Time = 3229.81

diagonal:  Solving for Sb, Initial residual = 0, Final residual = 0, No Iterations 0
Saturation b  Min(Sb) = 0.002 Max(Sb) = 0.835499
DICPCG:  Solving for p, Initial residual = 0.000902935, Final residual = 7.41837e-13, No Iterations 99
ExecutionTime = 1.3 s  ClockTime = 2 s

Coats CFL Number mean: 0.00366894 max: 0.862879
deltaT = 34.0421
Time = 3263.85

diagonal:  Solving for Sb, Initial residual = 0, Final residual = 0, No Iterations 0
Saturation b  Min(Sb) = 0.002 Max(Sb) = 0.835595
DICPCG:  Solving for p, Initial residual = 0.000780565, Final residual = 7.20639e-13, No Iterations 99
ExecutionTime = 1.31 s  ClockTime = 2 s

Coats CFL Number mean: 0.00322649 max: 0.77674
deltaT = 32.7575
Time = 3296.61

diagonal:  Solving for Sb, Initial residual = 0, Final residual = 0, No Iterations 0
Saturation b  Min(Sb) = 0.002 Max(Sb) = 0.835681
DICPCG:  Solving for p, Initial residual = 0.000758556, Final residual = 7.8391e-13, No Iterations 98
ExecutionTime = 1.32 s  ClockTime = 2 s

Coats CFL Number mean: 0.00315412 max: 0.731103
deltaT = 33.3998
Time = 3330.01

diagonal:  Solving for Sb, Initial residual = 0, Final residual = 0, No Iterations 0
Saturation b  Min(Sb) = 0.002 Max(Sb) = 0.835769
DICPCG:  Solving for p, Initial residual = 0.00077064, Final residual = 7.71723e-13, No Iterations 99
ExecutionTime = 1.33 s  ClockTime = 2 s

Coats CFL Number mean: 0.00325222 max: 0.711066
deltaT = 34.7914
Time = 3364.8

diagonal:  Solving for Sb, Initial residual = 0, Final residual = 0, No Iterations 0
Saturation b  Min(Sb) = 0.002 Max(Sb) = 0.835862
DICPCG:  Solving for p, Initial residual = 0.00079928, Final residual = 8.54356e-13, No Iterations 98
ExecutionTime = 1.34 s  ClockTime = 2 s

Coats CFL Number mean: 0.00340652 max: 0.736491
deltaT = 34.7914
Time = 3399.59

diagonal:  Solving for Sb, Initial residual = 0, Final residual = 0, No Iterations 0
Saturation b  Min(Sb) = 0.002 Max(Sb) = 0.835955
DICPCG:  Solving for p, Initial residual = 0.00079654, Final residual = 8.47195e-13, No Iterations 99
ExecutionTime = 1.34 s  ClockTime = 2 s

Coats CFL Number mean: 0.00341865 max: 0.689467
deltaT = 37.2187
Time = 3436.81

diagonal:  Solving for Sb, Initial residual = 0, Final residual = 0, No Iterations 0
Saturation b  Min(Sb) = 0.002 Max(Sb) = 0.836057
DICPCG:  Solving for p, Initial residual = 0.000816637, Final residual = 9.66906e-13, No Iterations 98
ExecutionTime = 1.35 s  ClockTime = 2 s

Coats CFL Number mean: 0.00367304 max: 0.787126
deltaT = 34.7375
Time = 3471.55

diagonal:  Solving for Sb, Initial residual = 0, Final residual = 0, No Iterations 0
Saturation b  Min(Sb) = 0.002 Max(Sb) = 0.836151
DICPCG:  Solving for p, Initial residual = 0.000748822, Final residual = 8.45673e-13, No Iterations 98
ExecutionTime = 1.36 s  ClockTime = 2 s

Coats CFL Number mean: 0.00344163 max: 0.789438
deltaT = 32.5202
Time = 3504.07

diagonal:  Solving for Sb, Initial residual = 0, Final residual = 0, No Iterations 0
Saturation b  Min(Sb) = 0.002 Max(Sb) = 0.836235
DICPCG:  Solving for p, Initial residual = 0.000777263, Final residual = 9.3059e-13, No Iterations 98
ExecutionTime = 1.37 s  ClockTime = 2 s

Coats CFL Number mean: 0.00324253 max: 0.733474
deltaT = 33.2429
Time = 3537.31

diagonal:  Solving for Sb, Initial residual = 0, Final residual = 0, No Iterations 0
Saturation b  Min(Sb) = 0.002 Max(Sb) = 0.83632
DICPCG:  Solving for p, Initial residual = 0.000844817, Final residual = 6.38053e-13, No Iterations 99
ExecutionTime = 1.38 s  ClockTime = 2 s

Coats CFL Number mean: 0.00335633 max: 0.719465
deltaT = 34.016
Time = 3571.33

diagonal:  Solving for Sb, Initial residual = 0, Final residual = 0, No Iterations 0
Saturation b  Min(Sb) = 0.002 Max(Sb) = 0.836408
DICPCG:  Solving for p, Initial residual = 0.000850644, Final residual = 6.88137e-13, No Iterations 99
ExecutionTime = 1.38 s  ClockTime = 2 s

Coats CFL Number mean: 0.00350064 max: 0.699027
deltaT = 35.7168
Time = 3607.05

diagonal:  Solving for Sb, Initial residual = 0, Final residual = 0, No Iterations 0
Saturation b  Min(Sb) = 0.002 Max(Sb) = 0.836502
DICPCG:  Solving for p, Initial residual = 0.000834907, Final residual = 7.65221e-13, No Iterations 100
ExecutionTime = 1.39 s  ClockTime = 2 s

Coats CFL Number mean: 0.00375098 max: 0.731677
deltaT = 35.7168
Time = 3642.76

diagonal:  Solving for Sb, Initial residual = 0, Final residual = 0, No Iterations 0
Saturation b  Min(Sb) = 0.002 Max(Sb) = 0.836597
DICPCG:  Solving for p, Initial residual = 0.00074412, Final residual = 7.58993e-13, No Iterations 100
ExecutionTime = 1.4 s  ClockTime = 2 s

Coats CFL Number mean: 0.00379242 max: 0.760278
deltaT = 34.8009
Time = 3677.56

diagonal:  Solving for Sb, Initial residual = 0, Final residual = 0, No Iterations 0
Saturation b  Min(Sb) = 0.002 Max(Sb) = 0.836688
DICPCG:  Solving for p, Initial residual = 0.00075291, Final residual = 9.22412e-13, No Iterations 99
ExecutionTime = 1.41 s  ClockTime = 2 s

Coats CFL Number mean: 0.0036988 max: 0.780407
deltaT = 33.0609
Time = 3710.62

diagonal:  Solving for Sb, Initial residual = 0, Final residual = 0, No Iterations 0
Saturation b  Min(Sb) = 0.002 Max(Sb) = 0.836773
DICPCG:  Solving for p, Initial residual = 0.000717676, Final residual = 8.33148e-13, No Iterations 99
ExecutionTime = 1.42 s  ClockTime = 2 s

Coats CFL Number mean: 0.00350335 max: 0.751767
deltaT = 32.2344
Time = 3742.86

diagonal:  Solving for Sb, Initial residual = 0, Final residual = 0, No Iterations 0
Saturation b  Min(Sb) = 0.002 Max(Sb) = 0.836853
DICPCG:  Solving for p, Initial residual = 0.000764124, Final residual = 7.36032e-13, No Iterations 99
ExecutionTime = 1.42 s  ClockTime = 2 s

Coats CFL Number mean: 0.00341383 max: 0.70982
deltaT = 33.9768
Time = 3776.84

diagonal:  Solving for Sb, Initial residual = 0, Final residual = 0, No Iterations 0
Saturation b  Min(Sb) = 0.002 Max(Sb) = 0.836939
DICPCG:  Solving for p, Initial residual = 0.000849856, Final residual = 9.88413e-13, No Iterations 98
ExecutionTime = 1.43 s  ClockTime = 2 s

Coats CFL Number mean: 0.00361904 max: 0.710827
deltaT = 34.9475
Time = 3811.78

diagonal:  Solving for Sb, Initial residual = 0, Final residual = 0, No Iterations 0
Saturation b  Min(Sb) = 0.002 Max(Sb) = 0.837029
DICPCG:  Solving for p, Initial residual = 0.000893559, Final residual = 7.42041e-13, No Iterations 99
ExecutionTime = 1.44 s  ClockTime = 2 s

Coats CFL Number mean: 0.00377482 max: 0.693288
deltaT = 37.1318
Time = 3848.92

diagonal:  Solving for Sb, Initial residual = 0, Final residual = 0, No Iterations 0
Saturation b  Min(Sb) = 0.002 Max(Sb) = 0.837127
DICPCG:  Solving for p, Initial residual = 0.000886663, Final residual = 8.98696e-13, No Iterations 99
ExecutionTime = 1.45 s  ClockTime = 2 s

Coats CFL Number mean: 0.00409595 max: 0.751708
deltaT = 35.9714
Time = 3884.89

diagonal:  Solving for Sb, Initial residual = 0, Final residual = 0, No Iterations 0
Saturation b  Min(Sb) = 0.002 Max(Sb) = 0.837222
DICPCG:  Solving for p, Initial residual = 0.000763268, Final residual = 6.32008e-13, No Iterations 99
ExecutionTime = 1.46 s  ClockTime = 2 s

Coats CFL Number mean: 0.00404238 max: 0.789726
deltaT = 33.7913
Time = 3918.68

diagonal:  Solving for Sb, Initial residual = 0, Final residual = 0, No Iterations 0
Saturation b  Min(Sb) = 0.002 Max(Sb) = 0.837309
DICPCG:  Solving for p, Initial residual = 0.000679541, Final residual = 8.64424e-13, No Iterations 100
ExecutionTime = 1.46 s  ClockTime = 2 s

Coats CFL Number mean: 0.00383032 max: 0.770111
deltaT = 32.7673
Time = 3951.45

diagonal:  Solving for Sb, Initial residual = 0, Final residual = 0, No Iterations 0
Saturation b  Min(Sb) = 0.002 Max(Sb) = 0.83739
DICPCG:  Solving for p, Initial residual = 0.000867892, Final residual = 8.37005e-13, No Iterations 97
ExecutionTime = 1.47 s  ClockTime = 2 s

Coats CFL Number mean: 0.00371639 max: 0.730156
deltaT = 32.7673
Time = 3984.21

diagonal:  Solving for Sb, Initial residual = 0, Final residual = 0, No Iterations 0
Saturation b  Min(Sb) = 0.002 Max(Sb) = 0.837471
DICPCG:  Solving for p, Initial residual = 0.000767013, Final residual = 9.9035e-13, No Iterations 99
ExecutionTime = 1.48 s  ClockTime = 2 s

Coats CFL Number mean: 0.00371141 max: 0.697355
deltaT = 35.0271
Time = 4019.24

diagonal:  Solving for Sb, Initial residual = 0, Final residual = 0, No Iterations 0
Saturation b  Min(Sb) = 0.002 Max(Sb) = 0.837559
DICPCG:  Solving for p, Initial residual = 0.00085081, Final residual = 8.44908e-13, No Iterations 97
ExecutionTime = 1.49 s  ClockTime = 2 s

Coats CFL Number mean: 0.00397523 max: 0.705237
deltaT = 36.3245
Time = 4055.56

diagonal:  Solving for Sb, Initial residual = 0, Final residual = 0, No Iterations 0
Saturation b  Min(Sb) = 0.002 Max(Sb) = 0.837653
DICPCG:  Solving for p, Initial residual = 0.000850325, Final residual = 7.09993e-13, No Iterations 99
ExecutionTime = 1.5 s  ClockTime = 2 s

Coats CFL Number mean: 0.00415296 max: 0.693036
deltaT = 37.7774
Time = 4093.34

diagonal:  Solving for Sb, Initial residual = 0, Final residual = 0, No Iterations 0
Saturation b  Min(Sb) = 0.002 Max(Sb) = 0.837753
DICPCG:  Solving for p, Initial residual = 0.000854429, Final residual = 9.79734e-13, No Iterations 98
ExecutionTime = 1.5 s  ClockTime = 2 s

Coats CFL Number mean: 0.00437025 max: 0.806937
deltaT = 34.8715
Time = 4128.21

diagonal:  Solving for Sb, Initial residual = 0, Final residual = 0, No Iterations 0
Saturation b  Min(Sb) = 0.002 Max(Sb) = 0.837844
DICPCG:  Solving for p, Initial residual = 0.000780717, Final residual = 6.34657e-13, No Iterations 99
ExecutionTime = 1.51 s  ClockTime = 2 s

Coats CFL Number mean: 0.00408275 max: 0.792832
deltaT = 32.2884
Time = 4160.5

diagonal:  Solving for Sb, Initial residual = 0, Final residual = 0, No Iterations 0
Saturation b  Min(Sb) = 0.002 Max(Sb) = 0.837924
DICPCG:  Solving for p, Initial residual = 0.000742985, Final residual = 8.97842e-13, No Iterations 98
ExecutionTime = 1.52 s  ClockTime = 2 s

Coats CFL Number mean: 0.00382595 max: 0.725462
deltaT = 32.2884
Time = 4192.79

diagonal:  Solving for Sb, Initial residual = 0, Final residual = 0, No Iterations 0
Saturation b  Min(Sb) = 0.002 Max(Sb) = 0.838001
DICPCG:  Solving for p, Initial residual = 0.000778254, Final residual = 6.96859e-13, No Iterations 99
ExecutionTime = 1.53 s  ClockTime = 2 s

Coats CFL Number mean: 0.0038717 max: 0.696494
deltaT = 33.6338
Time = 4226.42

diagonal:  Solving for Sb, Initial residual = 0, Final residual = 0, No Iterations 0
Saturation b  Min(Sb) = 0.002 Max(Sb) = 0.838084
DICPCG:  Solving for p, Initial residual = 0.000760889, Final residual = 9.90821e-13, No Iterations 98
ExecutionTime = 1.54 s  ClockTime = 2 s

Coats CFL Number mean: 0.00406517 max: 0.711074
deltaT = 35.1626
Time = 4261.59

diagonal:  Solving for Sb, Initial residual = 0, Final residual = 0, No Iterations 0
Saturation b  Min(Sb) = 0.002 Max(Sb) = 0.838172
DICPCG:  Solving for p, Initial residual = 0.000786777, Final residual = 8.11602e-13, No Iterations 99
ExecutionTime = 1.54 s  ClockTime = 2 s

Coats CFL Number mean: 0.00426714 max: 0.724259
deltaT = 35.1626
Time = 4296.75

diagonal:  Solving for Sb, Initial residual = 0, Final residual = 0, No Iterations 0
Saturation b  Min(Sb) = 0.002 Max(Sb) = 0.838261
DICPCG:  Solving for p, Initial residual = 0.000771873, Final residual = 8.42513e-13, No Iterations 99
ExecutionTime = 1.55 s  ClockTime = 2 s

Coats CFL Number mean: 0.00427871 max: 0.703885
deltaT = 37.0132
Time = 4333.76

diagonal:  Solving for Sb, Initial residual = 0, Final residual = 0, No Iterations 0
Saturation b  Min(Sb) = 0.002 Max(Sb) = 0.838357
DICPCG:  Solving for p, Initial residual = 0.000773415, Final residual = 9.59986e-13, No Iterations 99
ExecutionTime = 1.56 s  ClockTime = 2 s

Coats CFL Number mean: 0.00451229 max: 0.83199
deltaT = 33.3119
Time = 4367.07

diagonal:  Solving for Sb, Initial residual = 0, Final residual = 0, No Iterations 0
Saturation b  Min(Sb) = 0.002 Max(Sb) = 0.838441
DICPCG:  Solving for p, Initial residual = 0.000865361, Final residual = 9.91703e-13, No Iterations 98
ExecutionTime = 1.57 s  ClockTime = 2 s

Coats CFL Number mean: 0.00407264 max: 0.755201
deltaT = 31.6463
Time = 4398.72

diagonal:  Solving for Sb, Initial residual = 0, Final residual = 0, No Iterations 0
Saturation b  Min(Sb) = 0.002 Max(Sb) = 0.838517
DICPCG:  Solving for p, Initial residual = 0.000784039, Final residual = 8.95553e-13, No Iterations 99
ExecutionTime = 1.58 s  ClockTime = 2 s

Coats CFL Number mean: 0.00389482 max: 0.694335
deltaT = 33.4044
Time = 4432.12

diagonal:  Solving for Sb, Initial residual = 0, Final residual = 0, No Iterations 0
Saturation b  Min(Sb) = 0.002 Max(Sb) = 0.838597
DICPCG:  Solving for p, Initial residual = 0.000848413, Final residual = 6.6934e-13, No Iterations 100
ExecutionTime = 1.58 s  ClockTime = 2 s

Coats CFL Number mean: 0.00416416 max: 0.697311
deltaT = 35.4922
Time = 4467.62

diagonal:  Solving for Sb, Initial residual = 0, Final residual = 0, No Iterations 0
Saturation b  Min(Sb) = 0.002 Max(Sb) = 0.838686
DICPCG:  Solving for p, Initial residual = 0.000850355, Final residual = 7.51279e-13, No Iterations 100
ExecutionTime = 1.59 s  ClockTime = 2 s

Coats CFL Number mean: 0.00450251 max: 0.724269
deltaT = 35.4922
Time = 4503.11

diagonal:  Solving for Sb, Initial residual = 0, Final residual = 0, No Iterations 0
Saturation b  Min(Sb) = 0.002 Max(Sb) = 0.838776
DICPCG:  Solving for p, Initial residual = 0.000756638, Final residual = 8.08355e-13, No Iterations 101
ExecutionTime = 1.6 s  ClockTime = 2 s

Coats CFL Number mean: 0.0045678 max: 0.727179
deltaT = 35.4922
Time = 4538.6

diagonal:  Solving for Sb, Initial residual = 0, Final residual = 0, No Iterations 0
Saturation b  Min(Sb) = 0.002 Max(Sb) = 0.838866
DICPCG:  Solving for p, Initial residual = 0.000688776, Final residual = 8.88385e-13, No Iterations 101
ExecutionTime = 1.61 s  ClockTime = 2 s

Coats CFL Number mean: 0.00458998 max: 0.777027
deltaT = 32.957
Time = 4571.56

diagonal:  Solving for Sb, Initial residual = 0, Final residual = 0, No Iterations 0
Saturation b  Min(Sb) = 0.002 Max(Sb) = 0.838948
DICPCG:  Solving for p, Initial residual = 0.000673247, Final residual = 9.27045e-13, No Iterations 99
ExecutionTime = 1.62 s  ClockTime = 2 s

Coats CFL Number mean: 0.00425443 max: 0.750185
deltaT = 32.957
Time = 4604.52

diagonal:  Solving for Sb, Initial residual = 0, Final residual = 0, No Iterations 0
Saturation b  Min(Sb) = 0.002 Max(Sb) = 0.839027
DICPCG:  Solving for p, Initial residual = 0.000878347, Final residual = 7.68209e-13, No Iterations 100
ExecutionTime = 1.63 s  ClockTime = 2 s

Coats CFL Number mean: 0.0042457 max: 0.734814
deltaT = 32.957
Time = 4637.47

diagonal:  Solving for Sb, Initial residual = 0, Final residual = 0, No Iterations 0
Saturation b  Min(Sb) = 0.002 Max(Sb) = 0.839107
DICPCG:  Solving for p, Initial residual = 0.000795675, Final residual = 6.2144e-13, No Iterations 100
ExecutionTime = 1.64 s  ClockTime = 2 s

Coats CFL Number mean: 0.00425174 max: 0.702111
deltaT = 32.957
Time = 4670.43

diagonal:  Solving for Sb, Initial residual = 0, Final residual = 0, No Iterations 0
Saturation b  Min(Sb) = 0.002 Max(Sb) = 0.839187
DICPCG:  Solving for p, Initial residual = 0.00083008, Final residual = 7.11627e-13, No Iterations 96
ExecutionTime = 1.64 s  ClockTime = 2 s

Coats CFL Number mean: 0.00428156 max: 0.66721
deltaT = 36.6189
Time = 4707.05

diagonal:  Solving for Sb, Initial residual = 0, Final residual = 0, No Iterations 0
Saturation b  Min(Sb) = 0.002 Max(Sb) = 0.839278
DICPCG:  Solving for p, Initial residual = 0.000890591, Final residual = 8.64598e-13, No Iterations 97
ExecutionTime = 1.65 s  ClockTime = 2 s

Coats CFL Number mean: 0.00482328 max: 0.712878
deltaT = 36.6189
Time = 4743.67

diagonal:  Solving for Sb, Initial residual = 0, Final residual = 0, No Iterations 0
Saturation b  Min(Sb) = 0.002 Max(Sb) = 0.839373
DICPCG:  Solving for p, Initial residual = 0.000817531, Final residual = 8.15055e-13, No Iterations 99
ExecutionTime = 1.66 s  ClockTime = 2 s

Coats CFL Number mean: 0.00490465 max: 0.768943
deltaT = 32.0416
Time = 4775.71

diagonal:  Solving for Sb, Initial residual = 0, Final residual = 0, No Iterations 0
Saturation b  Min(Sb) = 0.002 Max(Sb) = 0.839452
DICPCG:  Solving for p, Initial residual = 0.000653534, Final residual = 9.24228e-13, No Iterations 99
ExecutionTime = 1.67 s  ClockTime = 2 s

Coats CFL Number mean: 0.00434142 max: 0.723537
deltaT = 32.0416
Time = 4807.75

diagonal:  Solving for Sb, Initial residual = 0, Final residual = 0, No Iterations 0
Saturation b  Min(Sb) = 0.002 Max(Sb) = 0.839528
DICPCG:  Solving for p, Initial residual = 0.000654318, Final residual = 9.31063e-13, No Iterations 100
ExecutionTime = 1.68 s  ClockTime = 2 s

Coats CFL Number mean: 0.00436374 max: 0.724161
deltaT = 32.0416
Time = 4839.79

diagonal:  Solving for Sb, Initial residual = 0, Final residual = 0, No Iterations 0
[...]

diagonal:  Solving for Sb, Initial residual = 0, Final residual = 0, No Iterations 0
Saturation b  Min(Sb) = 0.002 Max(Sb) = 0.99025
DICPCG:  Solving for p, Initial residual = 0.00030292, Final residual = 8.56784e-13, No Iterations 101
ExecutionTime = 5.07 s  ClockTime = 5 s

Coats CFL Number mean: 0.00802714 max: 0.73775
deltaT = 39.5882
Time = 22585.1

diagonal:  Solving for Sb, Initial residual = 0, Final residual = 0, No Iterations 0
Saturation b  Min(Sb) = 0.002 Max(Sb) = 0.990262
DICPCG:  Solving for p, Initial residual = 0.000306653, Final residual = 8.60884e-13, No Iterations 101
ExecutionTime = 5.08 s  ClockTime = 5 s

Coats CFL Number mean: 0.00805547 max: 0.748081
deltaT = 39.5882
Time = 22624.7

diagonal:  Solving for Sb, Initial residual = 0, Final residual = 0, No Iterations 0
Saturation b  Min(Sb) = 0.002 Max(Sb) = 0.990274
DICPCG:  Solving for p, Initial residual = 0.000301562, Final residual = 8.03092e-13, No Iterations 101
ExecutionTime = 5.09 s  ClockTime = 5 s

Coats CFL Number mean: 0.00793768 max: 0.745894
deltaT = 39.5882
Time = 22664.3

diagonal:  Solving for Sb, Initial residual = 0, Final residual = 0, No Iterations 0
Saturation b  Min(Sb) = 0.002 Max(Sb) = 0.990286
DICPCG:  Solving for p, Initial residual = 0.000290091, Final residual = 9.77323e-13, No Iterations 98
ExecutionTime = 5.1 s  ClockTime = 5 s

Coats CFL Number mean: 0.0077988 max: 0.74317
deltaT = 39.5882
Time = 22703.9

diagonal:  Solving for Sb, Initial residual = 0, Final residual = 0, No Iterations 0
Saturation b  Min(Sb) = 0.002 Max(Sb) = 0.990298
DICPCG:  Solving for p, Initial residual = 0.000270479, Final residual = 9.65133e-13, No Iterations 100
ExecutionTime = 5.11 s  ClockTime = 5 s

Coats CFL Number mean: 0.00764125 max: 0.739983
deltaT = 39.5882
Time = 22743.5

diagonal:  Solving for Sb, Initial residual = 0, Final residual = 0, No Iterations 0
Saturation b  Min(Sb) = 0.002 Max(Sb) = 0.990309
DICPCG:  Solving for p, Initial residual = 0.000244575, Final residual = 6.80211e-13, No Iterations 101
ExecutionTime = 5.11 s  ClockTime = 5 s

Coats CFL Number mean: 0.00748905 max: 0.736395
deltaT = 40.2951
Time = 22783.8

diagonal:  Solving for Sb, Initial residual = 0, Final residual = 0, No Iterations 0
Saturation b  Min(Sb) = 0.002 Max(Sb) = 0.990321
DICPCG:  Solving for p, Initial residual = 0.000222724, Final residual = 9.07049e-13, No Iterations 100
ExecutionTime = 5.12 s  ClockTime = 5 s

Coats CFL Number mean: 0.00750096 max: 0.745469
deltaT = 40.2951
Time = 22824.1

diagonal:  Solving for Sb, Initial residual = 0, Final residual = 0, No Iterations 0
Saturation b  Min(Sb) = 0.002 Max(Sb) = 0.990333
DICPCG:  Solving for p, Initial residual = 0.000218735, Final residual = 7.92399e-13, No Iterations 98
ExecutionTime = 5.13 s  ClockTime = 5 s

Coats CFL Number mean: 0.00742359 max: 0.741074
deltaT = 40.2951
Time = 22864.4

diagonal:  Solving for Sb, Initial residual = 0, Final residual = 0, No Iterations 0
Saturation b  Min(Sb) = 0.002 Max(Sb) = 0.990345
DICPCG:  Solving for p, Initial residual = 0.00022266, Final residual = 9.83734e-13, No Iterations 99
ExecutionTime = 5.14 s  ClockTime = 5 s

Coats CFL Number mean: 0.00737945 max: 0.736408
deltaT = 40.2951
Time = 22904.7

diagonal:  Solving for Sb, Initial residual = 0, Final residual = 0, No Iterations 0
Saturation b  Min(Sb) = 0.002 Max(Sb) = 0.990356
DICPCG:  Solving for p, Initial residual = 0.000227611, Final residual = 7.40616e-13, No Iterations 100
ExecutionTime = 5.15 s  ClockTime = 5 s

Coats CFL Number mean: 0.0073522 max: 0.731508
deltaT = 41.0852
Time = 22945.7

diagonal:  Solving for Sb, Initial residual = 0, Final residual = 0, No Iterations 0
Saturation b  Min(Sb) = 0.002 Max(Sb) = 0.990368
DICPCG:  Solving for p, Initial residual = 0.00023624, Final residual = 7.37211e-13, No Iterations 100
ExecutionTime = 5.15 s  ClockTime = 5 s

Coats CFL Number mean: 0.00746747 max: 0.740551
deltaT = 41.0852
Time = 22986.8

diagonal:  Solving for Sb, Initial residual = 0, Final residual = 0, No Iterations 0
Saturation b  Min(Sb) = 0.002 Max(Sb) = 0.99038
DICPCG:  Solving for p, Initial residual = 0.000238308, Final residual = 6.92557e-13, No Iterations 100
ExecutionTime = 5.16 s  ClockTime = 5 s

Coats CFL Number mean: 0.00741725 max: 0.735075
deltaT = 41.0852
Time = 23027.9

diagonal:  Solving for Sb, Initial residual = 0, Final residual = 0, No Iterations 0
Saturation b  Min(Sb) = 0.002 Max(Sb) = 0.990392
DICPCG:  Solving for p, Initial residual = 0.00023508, Final residual = 6.623e-13, No Iterations 100
ExecutionTime = 5.17 s  ClockTime = 5 s

Coats CFL Number mean: 0.00732558 max: 0.729455
deltaT = 41.9594
Time = 23069.9

diagonal:  Solving for Sb, Initial residual = 0, Final residual = 0, No Iterations 0
Saturation b  Min(Sb) = 0.002 Max(Sb) = 0.990404
DICPCG:  Solving for p, Initial residual = 0.000227752, Final residual = 9.93102e-13, No Iterations 99
ExecutionTime = 5.18 s  ClockTime = 5 s

Coats CFL Number mean: 0.00733895 max: 0.73899
deltaT = 41.9594
Time = 23111.8

diagonal:  Solving for Sb, Initial residual = 0, Final residual = 0, No Iterations 0
Saturation b  Min(Sb) = 0.002 Max(Sb) = 0.990416
DICPCG:  Solving for p, Initial residual = 0.000206605, Final residual = 9.38638e-13, No Iterations 99
ExecutionTime = 5.19 s  ClockTime = 5 s

Coats CFL Number mean: 0.00718357 max: 0.732909
deltaT = 42.913
Time = 23154.7

diagonal:  Solving for Sb, Initial residual = 0, Final residual = 0, No Iterations 0
Saturation b  Min(Sb) = 0.002 Max(Sb) = 0.990428
DICPCG:  Solving for p, Initial residual = 0.00018441, Final residual = 8.8061e-13, No Iterations 99
ExecutionTime = 5.19 s  ClockTime = 5 s

Coats CFL Number mean: 0.00722102 max: 0.743126
deltaT = 42.913
Time = 23197.7

diagonal:  Solving for Sb, Initial residual = 0, Final residual = 0, No Iterations 0
Saturation b  Min(Sb) = 0.002 Max(Sb) = 0.99044
DICPCG:  Solving for p, Initial residual = 0.000166537, Final residual = 7.85638e-13, No Iterations 99
ExecutionTime = 5.2 s  ClockTime = 5 s

Coats CFL Number mean: 0.00714883 max: 0.73663
deltaT = 42.913
Time = 23240.6

diagonal:  Solving for Sb, Initial residual = 0, Final residual = 0, No Iterations 0
Saturation b  Min(Sb) = 0.002 Max(Sb) = 0.990452
DICPCG:  Solving for p, Initial residual = 0.000170395, Final residual = 6.8929e-13, No Iterations 99
ExecutionTime = 5.21 s  ClockTime = 5 s

Coats CFL Number mean: 0.00711523 max: 0.730098
deltaT = 43.9858
Time = 23284.6

diagonal:  Solving for Sb, Initial residual = 0, Final residual = 0, No Iterations 0
Saturation b  Min(Sb) = 0.002 Max(Sb) = 0.990464
DICPCG:  Solving for p, Initial residual = 0.000179925, Final residual = 8.19373e-13, No Iterations 98
ExecutionTime = 5.22 s  ClockTime = 5 s

Coats CFL Number mean: 0.00727986 max: 0.741464
deltaT = 43.9858
Time = 23328.5

diagonal:  Solving for Sb, Initial residual = 0, Final residual = 0, No Iterations 0
Saturation b  Min(Sb) = 0.002 Max(Sb) = 0.990477
DICPCG:  Solving for p, Initial residual = 0.000188298, Final residual = 8.01831e-13, No Iterations 95
ExecutionTime = 5.23 s  ClockTime = 5 s

Coats CFL Number mean: 0.00727731 max: 0.734573
deltaT = 43.9858
Time = 23372.5

diagonal:  Solving for Sb, Initial residual = 0, Final residual = 0, No Iterations 0
Saturation b  Min(Sb) = 0.002 Max(Sb) = 0.990489
DICPCG:  Solving for p, Initial residual = 0.000194323, Final residual = 9.65823e-13, No Iterations 97
ExecutionTime = 5.24 s  ClockTime = 5 s

Coats CFL Number mean: 0.0072826 max: 0.72769
deltaT = 45.2076
Time = 23417.7

diagonal:  Solving for Sb, Initial residual = 0, Final residual = 0, No Iterations 0
Saturation b  Min(Sb) = 0.002 Max(Sb) = 0.990501
DICPCG:  Solving for p, Initial residual = 0.000635802, Final residual = 5.59168e-13, No Iterations 99
ExecutionTime = 5.25 s  ClockTime = 5 s

Coats CFL Number mean: 0.0074924 max: 0.740649
deltaT = 45.2076
Time = 23462.9

diagonal:  Solving for Sb, Initial residual = 0, Final residual = 0, No Iterations 0
Saturation b  Min(Sb) = 0.002 Max(Sb) = 0.990514
DICPCG:  Solving for p, Initial residual = 0.000217295, Final residual = 9.55969e-13, No Iterations 98
ExecutionTime = 5.25 s  ClockTime = 6 s

Coats CFL Number mean: 0.00749263 max: 0.733434
deltaT = 45.2076
Time = 23508.1

diagonal:  Solving for Sb, Initial residual = 0, Final residual = 0, No Iterations 0
Saturation b  Min(Sb) = 0.002 Max(Sb) = 0.990526
DICPCG:  Solving for p, Initial residual = 0.000274592, Final residual = 5.76949e-13, No Iterations 99
ExecutionTime = 5.26 s  ClockTime = 6 s

Coats CFL Number mean: 0.00747603 max: 0.731651
deltaT = 45.2076
Time = 23553.4

diagonal:  Solving for Sb, Initial residual = 0, Final residual = 0, No Iterations 0
Saturation b  Min(Sb) = 0.002 Max(Sb) = 0.990538
DICPCG:  Solving for p, Initial residual = 0.000218934, Final residual = 5.89299e-13, No Iterations 99
ExecutionTime = 5.27 s  ClockTime = 6 s

Coats CFL Number mean: 0.00742515 max: 0.741188
deltaT = 45.2076
Time = 23598.6

diagonal:  Solving for Sb, Initial residual = 0, Final residual = 0, No Iterations 0
Saturation b  Min(Sb) = 0.002 Max(Sb) = 0.990551
DICPCG:  Solving for p, Initial residual = 0.000201212, Final residual = 5.47222e-13, No Iterations 99
ExecutionTime = 5.28 s  ClockTime = 6 s

Coats CFL Number mean: 0.00734046 max: 0.747783
deltaT = 45.2076
Time = 23643.8

diagonal:  Solving for Sb, Initial residual = 0, Final residual = 0, No Iterations 0
Saturation b  Min(Sb) = 0.002 Max(Sb) = 0.990563
DICPCG:  Solving for p, Initial residual = 0.000182903, Final residual = 9.16765e-13, No Iterations 98
ExecutionTime = 5.29 s  ClockTime = 6 s

Coats CFL Number mean: 0.0072523 max: 0.751988
deltaT = 43.7493
Time = 23687.5

diagonal:  Solving for Sb, Initial residual = 0, Final residual = 0, No Iterations 0
Saturation b  Min(Sb) = 0.002 Max(Sb) = 0.990575
DICPCG:  Solving for p, Initial residual = 0.000160665, Final residual = 7.77917e-13, No Iterations 98
ExecutionTime = 5.29 s  ClockTime = 6 s

Coats CFL Number mean: 0.00696242 max: 0.729867
deltaT = 43.7493
Time = 23731.3

diagonal:  Solving for Sb, Initial residual = 0, Final residual = 0, No Iterations 0
Saturation b  Min(Sb) = 0.002 Max(Sb) = 0.990586
DICPCG:  Solving for p, Initial residual = 0.000195695, Final residual = 6.61993e-13, No Iterations 98
ExecutionTime = 5.3 s  ClockTime = 6 s

Coats CFL Number mean: 0.00693713 max: 0.730471
deltaT = 43.7493
Time = 23775

diagonal:  Solving for Sb, Initial residual = 0, Final residual = 0, No Iterations 0
Saturation b  Min(Sb) = 0.002 Max(Sb) = 0.990598
DICPCG:  Solving for p, Initial residual = 0.00017428, Final residual = 6.22994e-13, No Iterations 98
ExecutionTime = 5.31 s  ClockTime = 6 s

Coats CFL Number mean: 0.00692821 max: 0.729862
deltaT = 43.7493
Time = 23818.8

diagonal:  Solving for Sb, Initial residual = 0, Final residual = 0, No Iterations 0
Saturation b  Min(Sb) = 0.002 Max(Sb) = 0.99061
DICPCG:  Solving for p, Initial residual = 0.000181862, Final residual = 6.07467e-13, No Iterations 98
ExecutionTime = 5.31 s  ClockTime = 6 s

Coats CFL Number mean: 0.00691838 max: 0.728225
deltaT = 43.7493
Time = 23862.5

diagonal:  Solving for Sb, Initial residual = 0, Final residual = 0, No Iterations 0
Saturation b  Min(Sb) = 0.002 Max(Sb) = 0.990621
DICPCG:  Solving for p, Initial residual = 0.000187317, Final residual = 6.05589e-13, No Iterations 98
ExecutionTime = 5.32 s  ClockTime = 6 s

Coats CFL Number mean: 0.00688698 max: 0.725728
deltaT = 43.7493
Time = 23906.3

diagonal:  Solving for Sb, Initial residual = 0, Final residual = 0, No Iterations 0
Saturation b  Min(Sb) = 0.002 Max(Sb) = 0.990633
DICPCG:  Solving for p, Initial residual = 0.000188301, Final residual = 6.10262e-13, No Iterations 98
ExecutionTime = 5.33 s  ClockTime = 6 s

Coats CFL Number mean: 0.00681471 max: 0.722512
deltaT = 43.7493
Time = 23950

diagonal:  Solving for Sb, Initial residual = 0, Final residual = 0, No Iterations 0
Saturation b  Min(Sb) = 0.002 Max(Sb) = 0.990644
DICPCG:  Solving for p, Initial residual = 0.000230253, Final residual = 8.79644e-13, No Iterations 97
ExecutionTime = 5.34 s  ClockTime = 6 s

Coats CFL Number mean: 0.00669361 max: 0.718655
deltaT = 45.6515
Time = 23995.7

diagonal:  Solving for Sb, Initial residual = 0, Final residual = 0, No Iterations 0
Saturation b  Min(Sb) = 0.002 Max(Sb) = 0.990656
DICPCG:  Solving for p, Initial residual = 0.000174583, Final residual = 8.91956e-13, No Iterations 97
ExecutionTime = 5.35 s  ClockTime = 6 s

Coats CFL Number mean: 0.00681889 max: 0.745213
deltaT = 45.6515
Time = 24041.3

diagonal:  Solving for Sb, Initial residual = 0, Final residual = 0, No Iterations 0
Saturation b  Min(Sb) = 0.002 Max(Sb) = 0.990668
DICPCG:  Solving for p, Initial residual = 0.000153954, Final residual = 8.82526e-13, No Iterations 97
ExecutionTime = 5.35 s  ClockTime = 6 s

Coats CFL Number mean: 0.00667469 max: 0.740098
deltaT = 45.6515
Time = 24087

diagonal:  Solving for Sb, Initial residual = 0, Final residual = 0, No Iterations 0
Saturation b  Min(Sb) = 0.002 Max(Sb) = 0.99068
DICPCG:  Solving for p, Initial residual = 0.000134635, Final residual = 8.42112e-13, No Iterations 97
ExecutionTime = 5.36 s  ClockTime = 6 s

Coats CFL Number mean: 0.00657847 max: 0.734638
deltaT = 45.6515
Time = 24132.6

diagonal:  Solving for Sb, Initial residual = 0, Final residual = 0, No Iterations 0
Saturation b  Min(Sb) = 0.002 Max(Sb) = 0.990692
DICPCG:  Solving for p, Initial residual = 0.000138607, Final residual = 7.74504e-13, No Iterations 97
ExecutionTime = 5.37 s  ClockTime = 6 s

Coats CFL Number mean: 0.00652112 max: 0.728897
deltaT = 45.6515
Time = 24178.3

diagonal:  Solving for Sb, Initial residual = 0, Final residual = 0, No Iterations 0
Saturation b  Min(Sb) = 0.002 Max(Sb) = 0.990703
DICPCG:  Solving for p, Initial residual = 0.000144592, Final residual = 9.0523e-13, No Iterations 96
ExecutionTime = 5.38 s  ClockTime = 6 s

Coats CFL Number mean: 0.00648655 max: 0.722927
deltaT = 45.6515
Time = 24223.9

diagonal:  Solving for Sb, Initial residual = 0, Final residual = 0, No Iterations 0
Saturation b  Min(Sb) = 0.002 Max(Sb) = 0.990715
DICPCG:  Solving for p, Initial residual = 0.000151452, Final residual = 7.73124e-13, No Iterations 95
ExecutionTime = 5.39 s  ClockTime = 6 s

Coats CFL Number mean: 0.00646424 max: 0.716773
deltaT = 45.6515
Time = 24269.6

diagonal:  Solving for Sb, Initial residual = 0, Final residual = 0, No Iterations 0
Saturation b  Min(Sb) = 0.002 Max(Sb) = 0.990727
DICPCG:  Solving for p, Initial residual = 0.000158879, Final residual = 9.68234e-13, No Iterations 94
ExecutionTime = 5.39 s  ClockTime = 6 s

Coats CFL Number mean: 0.00645004 max: 0.710475
deltaT = 45.6515
Time = 24315.2

diagonal:  Solving for Sb, Initial residual = 0, Final residual = 0, No Iterations 0
Saturation b  Min(Sb) = 0.002 Max(Sb) = 0.990738
DICPCG:  Solving for p, Initial residual = 0.000200839, Final residual = 7.10328e-13, No Iterations 97
ExecutionTime = 5.4 s  ClockTime = 6 s

Coats CFL Number mean: 0.00644348 max: 0.704042
deltaT = 45.6515
Time = 24360.9

diagonal:  Solving for Sb, Initial residual = 0, Final residual = 0, No Iterations 0
Saturation b  Min(Sb) = 0.002 Max(Sb) = 0.99075
DICPCG:  Solving for p, Initial residual = 0.000174304, Final residual = 6.72718e-13, No Iterations 97
ExecutionTime = 5.41 s  ClockTime = 6 s

Coats CFL Number mean: 0.00644016 max: 0.697572
deltaT = 45.6515
Time = 24406.5

diagonal:  Solving for Sb, Initial residual = 0, Final residual = 0, No Iterations 0
Saturation b  Min(Sb) = 0.002 Max(Sb) = 0.990761
DICPCG:  Solving for p, Initial residual = 0.000181429, Final residual = 6.39254e-13, No Iterations 97
ExecutionTime = 5.42 s  ClockTime = 6 s

Coats CFL Number mean: 0.00643893 max: 0.69107
deltaT = 49.4558
Time = 24456

diagonal:  Solving for Sb, Initial residual = 0, Final residual = 0, No Iterations 0
Saturation b  Min(Sb) = 0.002 Max(Sb) = 0.990774
DICPCG:  Solving for p, Initial residual = 0.000200968, Final residual = 9.39718e-13, No Iterations 96
ExecutionTime = 5.43 s  ClockTime = 6 s

Coats CFL Number mean: 0.00697018 max: 0.741003
deltaT = 49.4558
Time = 24505.4

diagonal:  Solving for Sb, Initial residual = 0, Final residual = 0, No Iterations 0
Saturation b  Min(Sb) = 0.002 Max(Sb) = 0.990786
DICPCG:  Solving for p, Initial residual = 0.000203221, Final residual = 9.61254e-13, No Iterations 94
ExecutionTime = 5.43 s  ClockTime = 6 s

Coats CFL Number mean: 0.00694705 max: 0.733356
deltaT = 49.4558
Time = 24554.9

diagonal:  Solving for Sb, Initial residual = 0, Final residual = 0, No Iterations 0
Saturation b  Min(Sb) = 0.002 Max(Sb) = 0.990798
DICPCG:  Solving for p, Initial residual = 0.00019868, Final residual = 7.58266e-13, No Iterations 95
ExecutionTime = 5.44 s  ClockTime = 6 s

Coats CFL Number mean: 0.00689401 max: 0.72574
deltaT = 49.4558
Time = 24604.4

diagonal:  Solving for Sb, Initial residual = 0, Final residual = 0, No Iterations 0
Saturation b  Min(Sb) = 0.002 Max(Sb) = 0.990811
DICPCG:  Solving for p, Initial residual = 0.000194502, Final residual = 8.24745e-13, No Iterations 96
ExecutionTime = 5.45 s  ClockTime = 6 s

Coats CFL Number mean: 0.0068226 max: 0.71816
deltaT = 49.4558
Time = 24653.8

diagonal:  Solving for Sb, Initial residual = 0, Final residual = 0, No Iterations 0
Saturation b  Min(Sb) = 0.002 Max(Sb) = 0.990823
DICPCG:  Solving for p, Initial residual = 0.000169564, Final residual = 9.29471e-13, No Iterations 95
ExecutionTime = 5.46 s  ClockTime = 6 s

Coats CFL Number mean: 0.00676152 max: 0.71068
deltaT = 49.4558
Time = 24703.3

diagonal:  Solving for Sb, Initial residual = 0, Final residual = 0, No Iterations 0
Saturation b  Min(Sb) = 0.002 Max(Sb) = 0.990835
DICPCG:  Solving for p, Initial residual = 0.000158273, Final residual = 8.39834e-13, No Iterations 95
ExecutionTime = 5.47 s  ClockTime = 6 s

Coats CFL Number mean: 0.00673175 max: 0.703291
deltaT = 49.4558
Time = 24752.7

diagonal:  Solving for Sb, Initial residual = 0, Final residual = 0, No Iterations 0
Saturation b  Min(Sb) = 0.002 Max(Sb) = 0.990847
DICPCG:  Solving for p, Initial residual = 0.000165337, Final residual = 8.44756e-13, No Iterations 95
ExecutionTime = 5.47 s  ClockTime = 6 s

Coats CFL Number mean: 0.00672333 max: 0.750016
deltaT = 49.4558
Time = 24802.2

diagonal:  Solving for Sb, Initial residual = 0, Final residual = 0, No Iterations 0
Saturation b  Min(Sb) = 0.002 Max(Sb) = 0.990859
DICPCG:  Solving for p, Initial residual = 0.000172102, Final residual = 7.17443e-13, No Iterations 93
ExecutionTime = 5.48 s  ClockTime = 6 s

Coats CFL Number mean: 0.00671013 max: 0.733816
deltaT = 49.4558
Time = 24851.6

diagonal:  Solving for Sb, Initial residual = 0, Final residual = 0, No Iterations 0
Saturation b  Min(Sb) = 0.002 Max(Sb) = 0.990871
DICPCG:  Solving for p, Initial residual = 0.000176572, Final residual = 8.57513e-13, No Iterations 92
ExecutionTime = 5.49 s  ClockTime = 6 s

Coats CFL Number mean: 0.00666229 max: 0.681629
deltaT = 49.4558
Time = 24901.1

diagonal:  Solving for Sb, Initial residual = 0, Final residual = 0, No Iterations 0
Saturation b  Min(Sb) = 0.002 Max(Sb) = 0.990883
DICPCG:  Solving for p, Initial residual = 0.000176122, Final residual = 7.33115e-13, No Iterations 93
ExecutionTime = 5.49 s  ClockTime = 6 s

Coats CFL Number mean: 0.00655597 max: 0.674579
deltaT = 49.4558
Time = 24950.5

diagonal:  Solving for Sb, Initial residual = 0, Final residual = 0, No Iterations 0
Saturation b  Min(Sb) = 0.002 Max(Sb) = 0.990895
DICPCG:  Solving for p, Initial residual = 0.000168174, Final residual = 8.77427e-13, No Iterations 95
ExecutionTime = 5.5 s  ClockTime = 6 s

Coats CFL Number mean: 0.00639379 max: 0.667619
deltaT = 49.4558
Time = 25000

diagonal:  Solving for Sb, Initial residual = 0, Final residual = 0, No Iterations 0
Saturation b  Min(Sb) = 0.002 Max(Sb) = 0.990906
DICPCG:  Solving for p, Initial residual = 0.000152452, Final residual = 9.46988e-13, No Iterations 95
ExecutionTime = 5.52 s  ClockTime = 6 s

End

